data_functionalizedCrystal
_audit_creation_method	'EQeq! by Chris Wilmer'
_symmetry_space_group_name_H-M	'P1'
_symmetry_Int_Tables_number	1
_symmetry_cell_setting	triclinic
loop_
_symmetry_equiv_pos_as_xyz
x,y,z
_cell_length_a	75.370200
_cell_length_b	75.370200
_cell_length_c	3.789300
_cell_angle_alpha	90.000000
_cell_angle_beta	90.000000
_cell_angle_gamma	120.000000
loop_
_atom_site_label
_atom_site_type_symbol
_atom_site_fract_x
_atom_site_fract_y
_atom_site_fract_z
_atom_site_charge
C1	C	0.241970	0.228510	0.247190	0.120000
C2	C	0.228870	0.236830	0.237600	-0.081000
C3	C	0.236650	0.258060	0.233190	-0.014000
C4	C	0.221780	0.265500	0.225680	0.044000
N5	N	0.227600	0.284550	0.160310	-0.109000
C6	C	0.214680	0.293510	0.149720	0.089000
C7	C	0.195130	0.284160	0.305310	-0.073000
C8	C	0.183480	0.293880	0.298690	-0.016000
C9	C	0.190930	0.313050	0.132970	-0.015000
C10	C	0.210520	0.322250	-0.022870	-0.016000
C11	C	0.222300	0.312690	-0.009580	-0.068000
C12	C	0.178470	0.323470	0.127010	0.040000
C13	C	0.156940	0.311970	0.126370	-0.076000
O14	O	0.234450	0.207230	0.271910	-0.180000
H15	H	0.212440	0.226820	0.232720	0.050000
H16	H	0.189030	0.269770	0.444510	0.049000
H17	H	0.168930	0.286590	0.435210	0.031000
H18	H	0.216700	0.336650	-0.162550	0.033000
H19	H	0.237340	0.320090	-0.130380	0.061000
H20	H	0.149430	0.295460	0.127240	0.047000
H21	H	0.205720	0.254430	0.261750	0.018000
C22	C	0.214370	0.194610	0.412920	-0.027000
H23	H	0.212220	0.179240	0.471600	0.044000
H24	H	0.202410	0.192660	0.221700	0.031000
H25	H	0.212490	0.201290	0.660090	0.043000
C26	C	0.271490	0.013450	0.247190	0.120000
C27	C	0.263170	0.492040	0.237600	-0.081000
C28	C	0.241940	0.478590	0.233190	-0.014000
C29	C	0.234500	0.456290	0.225680	0.044000
N30	N	0.215450	0.443050	0.160310	-0.109000
C31	C	0.206490	0.421170	0.149720	0.089000
C32	C	0.215840	0.410970	0.305310	-0.073000
C33	C	0.206120	0.389600	0.298690	-0.016000
C34	C	0.186950	0.377880	0.132970	-0.015000
C35	C	0.177750	0.388270	-0.022870	-0.016000
C36	C	0.187310	0.409620	-0.009580	-0.069000
C37	C	0.176530	0.355000	0.127010	0.040000
C38	C	0.188030	0.344970	0.126370	-0.076000
O39	O	0.292770	0.027220	0.271910	-0.181000
H40	H	0.273180	0.485620	0.232720	0.049000
H41	H	0.230230	0.419260	0.444510	0.048000
H42	H	0.213410	0.382340	0.435210	0.030000
H43	H	0.163350	0.380050	-0.162550	0.032000
H44	H	0.179910	0.417250	-0.130380	0.060000
H45	H	0.204540	0.353970	0.127240	0.046000
H46	H	0.245570	0.451290	0.261750	0.017000
C47	C	0.305390	0.019760	0.412920	-0.028000
H48	H	0.320760	0.032980	0.471600	0.043000
H49	H	0.307340	0.009750	0.221700	0.030000
H50	H	0.298710	0.011200	0.660090	0.042000
C51	C	0.486550	0.258030	0.247190	0.119000
C52	C	0.007960	0.271130	0.237600	-0.082000
C53	C	0.021410	0.263350	0.233190	-0.016000
C54	C	0.043720	0.278220	0.225680	0.043000
N55	N	0.056950	0.272400	0.160310	-0.110000
C56	C	0.078830	0.285320	0.149720	0.088000
C57	C	0.089030	0.304880	0.305310	-0.074000
C58	C	0.110400	0.316530	0.298690	-0.017000
C59	C	0.122130	0.309080	0.132970	-0.016000
C60	C	0.111730	0.289490	-0.022870	-0.017000
C61	C	0.090390	0.277700	-0.009580	-0.069000
C62	C	0.145010	0.321540	0.127010	0.039000
C63	C	0.155030	0.343060	0.126370	-0.077000
O64	O	0.472780	0.265550	0.271910	-0.181000
H65	H	0.014390	0.287570	0.232720	0.049000
H66	H	0.080740	0.310980	0.444510	0.048000
H67	H	0.117660	0.331080	0.435210	0.030000
H68	H	0.119950	0.283310	-0.162550	0.032000
H69	H	0.082760	0.262660	-0.130380	0.060000
H70	H	0.146030	0.350580	0.127240	0.046000
H71	H	0.048710	0.294280	0.261750	0.017000
C72	C	0.480240	0.285630	0.412920	-0.028000
H73	H	0.467020	0.287780	0.471600	0.043000
H74	H	0.490250	0.297590	0.221700	0.030000
H75	H	0.488810	0.287520	0.660090	0.041000
C76	C	0.258030	0.271490	0.247190	0.119000
C77	C	0.271130	0.263170	0.237600	-0.082000
C78	C	0.263350	0.241940	0.233190	-0.016000
C79	C	0.278220	0.234500	0.225680	0.043000
N80	N	0.272400	0.215450	0.160310	-0.110000
C81	C	0.285320	0.206490	0.149720	0.088000
C82	C	0.304870	0.215840	0.305310	-0.074000
C83	C	0.316520	0.206120	0.298690	-0.017000
C84	C	0.309080	0.186950	0.132970	-0.016000
C85	C	0.289480	0.177750	-0.022870	-0.017000
C86	C	0.277700	0.187310	-0.009580	-0.070000
C87	C	0.321540	0.176530	0.127010	0.039000
C88	C	0.343060	0.188030	0.126370	-0.077000
O89	O	0.265550	0.292780	0.271910	-0.181000
H90	H	0.287560	0.273180	0.232720	0.049000
H91	H	0.310980	0.230230	0.444510	0.048000
H92	H	0.331080	0.213410	0.435210	0.030000
H93	H	0.283300	0.163350	-0.162550	0.032000
H94	H	0.262660	0.179910	-0.130380	0.060000
H95	H	0.350570	0.204540	0.127240	0.046000
H96	H	0.294280	0.245570	0.261750	0.017000
C97	C	0.285630	0.305390	0.412920	-0.028000
H98	H	0.287780	0.320760	0.471600	0.043000
H99	H	0.297590	0.307350	0.221700	0.030000
H100	H	0.287510	0.298710	0.660090	0.042000
C101	C	0.228510	0.486550	0.247190	0.119000
C102	C	0.236830	0.007960	0.237600	-0.082000
C103	C	0.258060	0.021410	0.233190	-0.015000
C104	C	0.265500	0.043720	0.225680	0.043000
N105	N	0.284550	0.056950	0.160310	-0.110000
C106	C	0.293510	0.078830	0.149720	0.088000
C107	C	0.284160	0.089030	0.305310	-0.074000
C108	C	0.293880	0.110400	0.298690	-0.017000
C109	C	0.313050	0.122130	0.132970	-0.016000
C110	C	0.322250	0.111730	-0.022870	-0.017000
C111	C	0.312690	0.090390	-0.009580	-0.070000
C112	C	0.323470	0.145010	0.127010	0.039000
C113	C	0.311970	0.155030	0.126370	-0.077000
O114	O	0.207230	0.472780	0.271910	-0.181000
H115	H	0.226820	0.014380	0.232720	0.049000
H116	H	0.269770	0.080740	0.444510	0.048000
H117	H	0.286590	0.117660	0.435210	0.030000
H118	H	0.336650	0.119950	-0.162550	0.032000
H119	H	0.320090	0.082760	-0.130380	0.060000
H120	H	0.295460	0.146030	0.127240	0.046000
H121	H	0.254430	0.048710	0.261750	0.017000
C122	C	0.194610	0.480240	0.412920	-0.028000
H123	H	0.179240	0.467020	0.471600	0.043000
H124	H	0.192660	0.490250	0.221700	0.030000
H125	H	0.201290	0.488810	0.660090	0.041000
C126	C	0.013450	0.241970	0.247190	0.119000
C127	C	0.492040	0.228870	0.237600	-0.082000
C128	C	0.478590	0.236650	0.233190	-0.015000
C129	C	0.456290	0.221780	0.225680	0.043000
N130	N	0.443050	0.227600	0.160310	-0.110000
C131	C	0.421170	0.214680	0.149720	0.088000
C132	C	0.410970	0.195130	0.305310	-0.074000
C133	C	0.389600	0.183480	0.298690	-0.017000
C134	C	0.377870	0.190930	0.132970	-0.016000
C135	C	0.388270	0.210520	-0.022870	-0.017000
C136	C	0.409620	0.222300	-0.009580	-0.070000
C137	C	0.354990	0.178470	0.127010	0.039000
C138	C	0.344970	0.156940	0.126370	-0.077000
O139	O	0.027220	0.234450	0.271910	-0.181000
H140	H	0.485620	0.212440	0.232720	0.049000
H141	H	0.419260	0.189030	0.444510	0.048000
H142	H	0.382340	0.168930	0.435210	0.030000
H143	H	0.380050	0.216700	-0.162550	0.032000
H144	H	0.417250	0.237340	-0.130380	0.060000
H145	H	0.353970	0.149430	0.127240	0.046000
H146	H	0.451290	0.205720	0.261750	0.017000
C147	C	0.019760	0.214370	0.412920	-0.028000
H148	H	0.032980	0.212220	0.471600	0.043000
H149	H	0.009750	0.202410	0.221700	0.030000
H150	H	0.011190	0.212490	0.660090	0.042000
C151	C	0.741970	0.228510	0.247190	0.119000
C152	C	0.728870	0.236830	0.237600	-0.082000
C153	C	0.736650	0.258060	0.233190	-0.015000
C154	C	0.721780	0.265500	0.225680	0.043000
N155	N	0.727600	0.284550	0.160310	-0.110000
C156	C	0.714680	0.293510	0.149720	0.088000
C157	C	0.695130	0.284160	0.305310	-0.074000
C158	C	0.683480	0.293880	0.298690	-0.017000
C159	C	0.690930	0.313050	0.132970	-0.016000
C160	C	0.710520	0.322250	-0.022870	-0.017000
C161	C	0.722300	0.312690	-0.009580	-0.069000
C162	C	0.678470	0.323470	0.127010	0.039000
C163	C	0.656940	0.311970	0.126370	-0.077000
O164	O	0.734450	0.207230	0.271910	-0.181000
H165	H	0.712440	0.226820	0.232720	0.049000
H166	H	0.689030	0.269770	0.444510	0.048000
H167	H	0.668930	0.286590	0.435210	0.030000
H168	H	0.716700	0.336650	-0.162550	0.032000
H169	H	0.737340	0.320090	-0.130380	0.060000
H170	H	0.649430	0.295460	0.127240	0.046000
H171	H	0.705720	0.254430	0.261750	0.017000
C172	C	0.714370	0.194610	0.412920	-0.028000
H173	H	0.712220	0.179240	0.471600	0.043000
H174	H	0.702410	0.192660	0.221700	0.030000
H175	H	0.712490	0.201290	0.660090	0.042000
C176	C	0.771490	0.013450	0.247190	0.119000
C177	C	0.763170	0.492040	0.237600	-0.082000
C178	C	0.741940	0.478590	0.233190	-0.016000
C179	C	0.734500	0.456290	0.225680	0.043000
N180	N	0.715450	0.443050	0.160310	-0.110000
C181	C	0.706490	0.421170	0.149720	0.088000
C182	C	0.715850	0.410970	0.305310	-0.074000
C183	C	0.706120	0.389600	0.298690	-0.017000
C184	C	0.686950	0.377880	0.132970	-0.016000
C185	C	0.677750	0.388270	-0.022870	-0.017000
C186	C	0.687310	0.409620	-0.009580	-0.070000
C187	C	0.676530	0.355000	0.127010	0.039000
C188	C	0.688030	0.344970	0.126370	-0.077000
O189	O	0.792780	0.027220	0.271910	-0.181000
H190	H	0.773180	0.485620	0.232720	0.049000
H191	H	0.730230	0.419260	0.444510	0.048000
H192	H	0.713420	0.382340	0.435210	0.030000
H193	H	0.663350	0.380050	-0.162550	0.032000
H194	H	0.679910	0.417250	-0.130380	0.060000
H195	H	0.704540	0.353970	0.127240	0.046000
H196	H	0.745570	0.451290	0.261750	0.017000
C197	C	0.805390	0.019760	0.412920	-0.027000
H198	H	0.820770	0.032980	0.471600	0.043000
H199	H	0.807340	0.009750	0.221700	0.030000
H200	H	0.798710	0.011200	0.660090	0.041000
C201	C	0.986550	0.258030	0.247190	0.119000
C202	C	0.507960	0.271130	0.237600	-0.082000
C203	C	0.521410	0.263350	0.233190	-0.016000
C204	C	0.543720	0.278220	0.225680	0.043000
N205	N	0.556950	0.272400	0.160310	-0.110000
C206	C	0.578830	0.285320	0.149720	0.088000
C207	C	0.589030	0.304880	0.305310	-0.074000
C208	C	0.610400	0.316520	0.298690	-0.017000
C209	C	0.622130	0.309080	0.132970	-0.016000
C210	C	0.611730	0.289490	-0.022870	-0.017000
C211	C	0.590390	0.277700	-0.009580	-0.069000
C212	C	0.645010	0.321540	0.127010	0.039000
C213	C	0.655030	0.343060	0.126370	-0.077000
O214	O	0.972780	0.265550	0.271910	-0.181000
H215	H	0.514390	0.287570	0.232720	0.049000
H216	H	0.580740	0.310980	0.444510	0.048000
H217	H	0.617660	0.331080	0.435210	0.030000
H218	H	0.619950	0.283310	-0.162550	0.032000
H219	H	0.582760	0.262660	-0.130380	0.060000
H220	H	0.646030	0.350580	0.127240	0.046000
H221	H	0.548710	0.294280	0.261750	0.017000
C222	C	0.980240	0.285630	0.412920	-0.028000
H223	H	0.967020	0.287780	0.471600	0.043000
H224	H	0.990250	0.297590	0.221700	0.030000
H225	H	0.988810	0.287510	0.660090	0.042000
C226	C	0.758040	0.271490	0.247190	0.119000
C227	C	0.771130	0.263170	0.237600	-0.082000
C228	C	0.763350	0.241940	0.233190	-0.016000
C229	C	0.778220	0.234500	0.225680	0.043000
N230	N	0.772400	0.215450	0.160310	-0.110000
C231	C	0.785320	0.206490	0.149720	0.088000
C232	C	0.804880	0.215840	0.305310	-0.074000
C233	C	0.816530	0.206120	0.298690	-0.017000
C234	C	0.809080	0.186950	0.132970	-0.016000
C235	C	0.789480	0.177750	-0.022870	-0.017000
C236	C	0.777700	0.187310	-0.009580	-0.069000
C237	C	0.821540	0.176530	0.127010	0.039000
C238	C	0.843060	0.188030	0.126370	-0.077000
O239	O	0.765550	0.292780	0.271910	-0.181000
H240	H	0.787570	0.273180	0.232720	0.049000
H241	H	0.810980	0.230230	0.444510	0.048000
H242	H	0.831080	0.213410	0.435210	0.030000
H243	H	0.783300	0.163350	-0.162550	0.032000
H244	H	0.762660	0.179910	-0.130380	0.060000
H245	H	0.850570	0.204540	0.127240	0.046000
H246	H	0.794280	0.245570	0.261750	0.017000
C247	C	0.785630	0.305390	0.412920	-0.028000
H248	H	0.787780	0.320760	0.471600	0.043000
H249	H	0.797590	0.307350	0.221700	0.030000
H250	H	0.787520	0.298710	0.660090	0.041000
C251	C	0.728510	0.486550	0.247190	0.119000
C252	C	0.736830	0.007960	0.237600	-0.082000
C253	C	0.758060	0.021410	0.233190	-0.015000
C254	C	0.765500	0.043720	0.225680	0.043000
N255	N	0.784550	0.056950	0.160310	-0.110000
C256	C	0.793510	0.078830	0.149720	0.088000
C257	C	0.784160	0.089030	0.305310	-0.074000
C258	C	0.793880	0.110400	0.298690	-0.017000
C259	C	0.813050	0.122130	0.132970	-0.016000
C260	C	0.822250	0.111730	-0.022870	-0.017000
C261	C	0.812690	0.090390	-0.009580	-0.070000
C262	C	0.823470	0.145010	0.127010	0.039000
C263	C	0.811970	0.155030	0.126370	-0.077000
O264	O	0.707230	0.472780	0.271910	-0.181000
H265	H	0.726820	0.014390	0.232720	0.049000
H266	H	0.769770	0.080740	0.444510	0.048000
H267	H	0.786590	0.117660	0.435210	0.030000
H268	H	0.836650	0.119950	-0.162550	0.032000
H269	H	0.820090	0.082760	-0.130380	0.060000
H270	H	0.795460	0.146030	0.127240	0.046000
H271	H	0.754430	0.048710	0.261750	0.017000
C272	C	0.694610	0.480240	0.412920	-0.028000
H273	H	0.679240	0.467020	0.471600	0.043000
H274	H	0.692660	0.490250	0.221700	0.030000
H275	H	0.701290	0.488810	0.660090	0.041000
C276	C	0.513460	0.241970	0.247190	0.119000
C277	C	0.992040	0.228870	0.237600	-0.082000
C278	C	0.978590	0.236650	0.233190	-0.015000
C279	C	0.956290	0.221780	0.225680	0.043000
N280	N	0.943050	0.227600	0.160310	-0.110000
C281	C	0.921170	0.214680	0.149720	0.088000
C282	C	0.910970	0.195130	0.305310	-0.074000
C283	C	0.889600	0.183480	0.298690	-0.017000
C284	C	0.877870	0.190930	0.132970	-0.016000
C285	C	0.888270	0.210520	-0.022870	-0.017000
C286	C	0.909620	0.222300	-0.009580	-0.070000
C287	C	0.855000	0.178470	0.127010	0.039000
C288	C	0.844970	0.156940	0.126370	-0.077000
O289	O	0.527220	0.234450	0.271910	-0.181000
H290	H	0.985620	0.212440	0.232720	0.049000
H291	H	0.919260	0.189030	0.444510	0.048000
H292	H	0.882340	0.168930	0.435210	0.030000
H293	H	0.880050	0.216700	-0.162550	0.032000
H294	H	0.917250	0.237340	-0.130380	0.060000
H295	H	0.853970	0.149430	0.127240	0.046000
H296	H	0.951290	0.205720	0.261750	0.017000
C297	C	0.519760	0.214370	0.412920	-0.028000
H298	H	0.532990	0.212220	0.471600	0.043000
H299	H	0.509760	0.202410	0.221700	0.030000
H300	H	0.511190	0.212490	0.660090	0.041000
C301	C	0.241970	0.728510	0.247190	0.119000
C302	C	0.228870	0.736830	0.237600	-0.082000
C303	C	0.236650	0.758060	0.233190	-0.015000
C304	C	0.221780	0.765500	0.225680	0.043000
N305	N	0.227600	0.784550	0.160310	-0.110000
C306	C	0.214680	0.793510	0.149720	0.088000
C307	C	0.195130	0.784160	0.305310	-0.074000
C308	C	0.183480	0.793880	0.298690	-0.017000
C309	C	0.190930	0.813050	0.132970	-0.016000
C310	C	0.210520	0.822250	-0.022870	-0.017000
C311	C	0.222300	0.812690	-0.009580	-0.069000
C312	C	0.178470	0.823470	0.127010	0.039000
C313	C	0.156940	0.811970	0.126370	-0.077000
O314	O	0.234450	0.707230	0.271910	-0.181000
H315	H	0.212440	0.726820	0.232720	0.049000
H316	H	0.189030	0.769770	0.444510	0.048000
H317	H	0.168930	0.786590	0.435210	0.030000
H318	H	0.216700	0.836650	-0.162550	0.032000
H319	H	0.237340	0.820090	-0.130380	0.060000
H320	H	0.149430	0.795460	0.127240	0.046000
H321	H	0.205720	0.754430	0.261750	0.017000
C322	C	0.214370	0.694610	0.412920	-0.028000
H323	H	0.212220	0.679240	0.471600	0.043000
H324	H	0.202410	0.692660	0.221700	0.030000
H325	H	0.212490	0.701290	0.660090	0.042000
C326	C	0.271490	0.513450	0.247190	0.119000
C327	C	0.263170	0.992040	0.237600	-0.082000
C328	C	0.241940	0.978590	0.233190	-0.016000
C329	C	0.234500	0.956290	0.225680	0.043000
N330	N	0.215450	0.943050	0.160310	-0.110000
C331	C	0.206490	0.921170	0.149720	0.088000
C332	C	0.215840	0.910970	0.305310	-0.074000
C333	C	0.206120	0.889600	0.298690	-0.017000
C334	C	0.186950	0.877880	0.132970	-0.016000
C335	C	0.177750	0.888270	-0.022870	-0.017000
C336	C	0.187310	0.909620	-0.009580	-0.070000
C337	C	0.176530	0.855000	0.127010	0.039000
C338	C	0.188030	0.844970	0.126370	-0.077000
O339	O	0.292770	0.527220	0.271910	-0.181000
H340	H	0.273180	0.985620	0.232720	0.049000
H341	H	0.230230	0.919260	0.444510	0.048000
H342	H	0.213410	0.882340	0.435210	0.030000
H343	H	0.163350	0.880050	-0.162550	0.032000
H344	H	0.179910	0.917250	-0.130380	0.060000
H345	H	0.204540	0.853970	0.127240	0.046000
H346	H	0.245570	0.951290	0.261750	0.017000
C347	C	0.305390	0.519760	0.412920	-0.028000
H348	H	0.320760	0.532990	0.471600	0.043000
H349	H	0.307340	0.509760	0.221700	0.030000
H350	H	0.298710	0.511200	0.660090	0.042000
C351	C	0.486550	0.758040	0.247190	0.119000
C352	C	0.007960	0.771130	0.237600	-0.082000
C353	C	0.021410	0.763350	0.233190	-0.016000
C354	C	0.043720	0.778220	0.225680	0.043000
N355	N	0.056950	0.772400	0.160310	-0.110000
C356	C	0.078830	0.785320	0.149720	0.088000
C357	C	0.089030	0.804880	0.305310	-0.074000
C358	C	0.110400	0.816530	0.298690	-0.017000
C359	C	0.122130	0.809080	0.132970	-0.016000
C360	C	0.111730	0.789490	-0.022870	-0.017000
C361	C	0.090390	0.777700	-0.009580	-0.070000
C362	C	0.145010	0.821540	0.127010	0.039000
C363	C	0.155030	0.843060	0.126370	-0.077000
O364	O	0.472780	0.765560	0.271910	-0.181000
H365	H	0.014390	0.787570	0.232720	0.049000
H366	H	0.080740	0.810980	0.444510	0.048000
H367	H	0.117660	0.831080	0.435210	0.030000
H368	H	0.119950	0.783310	-0.162550	0.032000
H369	H	0.082760	0.762670	-0.130380	0.060000
H370	H	0.146030	0.850580	0.127240	0.046000
H371	H	0.048710	0.794280	0.261750	0.017000
C372	C	0.480240	0.785630	0.412920	-0.027000
H373	H	0.467020	0.787780	0.471600	0.043000
H374	H	0.490250	0.797590	0.221700	0.030000
H375	H	0.488810	0.787520	0.660090	0.041000
C376	C	0.258030	0.771490	0.247190	0.119000
C377	C	0.271130	0.763170	0.237600	-0.082000
C378	C	0.263350	0.741940	0.233190	-0.016000
C379	C	0.278220	0.734500	0.225680	0.043000
N380	N	0.272400	0.715450	0.160310	-0.110000
C381	C	0.285320	0.706490	0.149720	0.088000
C382	C	0.304870	0.715840	0.305310	-0.074000
C383	C	0.316520	0.706120	0.298690	-0.017000
C384	C	0.309080	0.686950	0.132970	-0.016000
C385	C	0.289480	0.677750	-0.022870	-0.017000
C386	C	0.277700	0.687310	-0.009580	-0.069000
C387	C	0.321540	0.676530	0.127010	0.039000
C388	C	0.343060	0.688030	0.126370	-0.077000
O389	O	0.265550	0.792780	0.271910	-0.181000
H390	H	0.287560	0.773180	0.232720	0.049000
H391	H	0.310980	0.730240	0.444510	0.048000
H392	H	0.331080	0.713410	0.435210	0.030000
H393	H	0.283300	0.663350	-0.162550	0.032000
H394	H	0.262660	0.679910	-0.130380	0.060000
H395	H	0.350570	0.704540	0.127240	0.046000
H396	H	0.294280	0.745570	0.261750	0.017000
C397	C	0.285630	0.805390	0.412920	-0.028000
H398	H	0.287780	0.820770	0.471600	0.043000
H399	H	0.297590	0.807350	0.221700	0.030000
H400	H	0.287510	0.798710	0.660090	0.042000
C401	C	0.228510	0.986550	0.247190	0.119000
C402	C	0.236830	0.507960	0.237600	-0.082000
C403	C	0.258060	0.521410	0.233190	-0.016000
C404	C	0.265500	0.543720	0.225680	0.043000
N405	N	0.284550	0.556950	0.160310	-0.110000
C406	C	0.293510	0.578830	0.149720	0.088000
C407	C	0.284160	0.589030	0.305310	-0.074000
C408	C	0.293880	0.610400	0.298690	-0.017000
C409	C	0.313050	0.622130	0.132970	-0.016000
C410	C	0.322250	0.611730	-0.022870	-0.017000
C411	C	0.312690	0.590390	-0.009580	-0.070000
C412	C	0.323470	0.645010	0.127010	0.039000
C413	C	0.311970	0.655030	0.126370	-0.077000
O414	O	0.207230	0.972780	0.271910	-0.181000
H415	H	0.226820	0.514390	0.232720	0.049000
H416	H	0.269770	0.580740	0.444510	0.048000
H417	H	0.286590	0.617660	0.435210	0.030000
H418	H	0.336650	0.619950	-0.162550	0.032000
H419	H	0.320090	0.582760	-0.130380	0.060000
H420	H	0.295460	0.646030	0.127240	0.046000
H421	H	0.254430	0.548710	0.261750	0.017000
C422	C	0.194610	0.980240	0.412920	-0.028000
H423	H	0.179240	0.967020	0.471600	0.043000
H424	H	0.192660	0.990250	0.221700	0.030000
H425	H	0.201290	0.988810	0.660090	0.041000
C426	C	0.013450	0.741970	0.247190	0.119000
C427	C	0.492040	0.728870	0.237600	-0.082000
C428	C	0.478590	0.736650	0.233190	-0.015000
C429	C	0.456290	0.721780	0.225680	0.042000
N430	N	0.443050	0.727600	0.160310	-0.110000
C431	C	0.421170	0.714680	0.149720	0.088000
C432	C	0.410970	0.695130	0.305310	-0.074000
C433	C	0.389600	0.683480	0.298690	-0.017000
C434	C	0.377870	0.690930	0.132970	-0.016000
C435	C	0.388270	0.710520	-0.022870	-0.017000
C436	C	0.409620	0.722300	-0.009580	-0.070000
C437	C	0.354990	0.678470	0.127010	0.039000
C438	C	0.344970	0.656940	0.126370	-0.077000
O439	O	0.027220	0.734450	0.271910	-0.181000
H440	H	0.485620	0.712440	0.232720	0.049000
H441	H	0.419260	0.689030	0.444510	0.048000
H442	H	0.382340	0.668930	0.435210	0.030000
H443	H	0.380050	0.716700	-0.162550	0.032000
H444	H	0.417250	0.737340	-0.130380	0.060000
H445	H	0.353970	0.649430	0.127240	0.046000
H446	H	0.451290	0.705720	0.261750	0.017000
C447	C	0.019760	0.714370	0.412920	-0.028000
H448	H	0.032980	0.712220	0.471600	0.043000
H449	H	0.009750	0.702410	0.221700	0.030000
H450	H	0.011190	0.712490	0.660090	0.042000
C451	C	0.741970	0.728510	0.247190	0.119000
C452	C	0.728870	0.736830	0.237600	-0.082000
C453	C	0.736650	0.758060	0.233190	-0.015000
C454	C	0.721780	0.765500	0.225680	0.043000
N455	N	0.727600	0.784550	0.160310	-0.110000
C456	C	0.714680	0.793510	0.149720	0.088000
C457	C	0.695130	0.784160	0.305310	-0.074000
C458	C	0.683480	0.793880	0.298690	-0.017000
C459	C	0.690930	0.813050	0.132970	-0.016000
C460	C	0.710520	0.822250	-0.022870	-0.017000
C461	C	0.722300	0.812690	-0.009580	-0.069000
C462	C	0.678470	0.823470	0.127010	0.039000
C463	C	0.656940	0.811970	0.126370	-0.077000
O464	O	0.734450	0.707230	0.271910	-0.181000
H465	H	0.712440	0.726820	0.232720	0.049000
H466	H	0.689030	0.769770	0.444510	0.048000
H467	H	0.668930	0.786590	0.435210	0.030000
H468	H	0.716700	0.836650	-0.162550	0.032000
H469	H	0.737340	0.820090	-0.130380	0.060000
H470	H	0.649430	0.795460	0.127240	0.046000
H471	H	0.705720	0.754430	0.261750	0.017000
C472	C	0.714370	0.694610	0.412920	-0.028000
H473	H	0.712220	0.679240	0.471600	0.043000
H474	H	0.702410	0.692660	0.221700	0.030000
H475	H	0.712490	0.701290	0.660090	0.042000
C476	C	0.771490	0.513450	0.247190	0.119000
C477	C	0.763170	0.992040	0.237600	-0.082000
C478	C	0.741940	0.978590	0.233190	-0.016000
C479	C	0.734500	0.956290	0.225680	0.043000
N480	N	0.715450	0.943050	0.160310	-0.110000
C481	C	0.706490	0.921170	0.149720	0.088000
C482	C	0.715850	0.910970	0.305310	-0.074000
C483	C	0.706120	0.889600	0.298690	-0.017000
C484	C	0.686950	0.877880	0.132970	-0.016000
C485	C	0.677750	0.888270	-0.022870	-0.017000
C486	C	0.687310	0.909620	-0.009580	-0.070000
C487	C	0.676530	0.855000	0.127010	0.039000
C488	C	0.688030	0.844970	0.126370	-0.077000
O489	O	0.792780	0.527220	0.271910	-0.181000
H490	H	0.773180	0.985620	0.232720	0.049000
H491	H	0.730230	0.919260	0.444510	0.048000
H492	H	0.713420	0.882340	0.435210	0.030000
H493	H	0.663350	0.880050	-0.162550	0.032000
H494	H	0.679910	0.917250	-0.130380	0.060000
H495	H	0.704540	0.853970	0.127240	0.046000
H496	H	0.745570	0.951290	0.261750	0.017000
C497	C	0.805390	0.519760	0.412920	-0.027000
H498	H	0.820770	0.532990	0.471600	0.043000
H499	H	0.807340	0.509760	0.221700	0.030000
H500	H	0.798710	0.511200	0.660090	0.041000
C501	C	0.986550	0.758030	0.247190	0.119000
C502	C	0.507960	0.771130	0.237600	-0.082000
C503	C	0.521410	0.763350	0.233190	-0.016000
C504	C	0.543720	0.778220	0.225680	0.043000
N505	N	0.556950	0.772400	0.160310	-0.110000
C506	C	0.578830	0.785320	0.149720	0.088000
C507	C	0.589030	0.804880	0.305310	-0.074000
C508	C	0.610400	0.816530	0.298690	-0.017000
C509	C	0.622130	0.809080	0.132970	-0.016000
C510	C	0.611730	0.789490	-0.022870	-0.017000
C511	C	0.590390	0.777700	-0.009580	-0.070000
C512	C	0.645010	0.821540	0.127010	0.039000
C513	C	0.655030	0.843060	0.126370	-0.077000
O514	O	0.972780	0.765560	0.271910	-0.181000
H515	H	0.514390	0.787570	0.232720	0.049000
H516	H	0.580740	0.810980	0.444510	0.048000
H517	H	0.617660	0.831080	0.435210	0.030000
H518	H	0.619950	0.783310	-0.162550	0.032000
H519	H	0.582760	0.762670	-0.130380	0.060000
H520	H	0.646030	0.850580	0.127240	0.046000
H521	H	0.548710	0.794280	0.261750	0.017000
C522	C	0.980240	0.785630	0.412920	-0.027000
H523	H	0.967020	0.787780	0.471600	0.043000
H524	H	0.990250	0.797590	0.221700	0.030000
H525	H	0.988810	0.787520	0.660090	0.041000
C526	C	0.758040	0.771490	0.247190	0.119000
C527	C	0.771130	0.763170	0.237600	-0.082000
C528	C	0.763350	0.741940	0.233190	-0.016000
C529	C	0.778220	0.734500	0.225680	0.043000
N530	N	0.772400	0.715450	0.160310	-0.110000
C531	C	0.785320	0.706490	0.149720	0.088000
C532	C	0.804880	0.715840	0.305310	-0.074000
C533	C	0.816530	0.706120	0.298690	-0.017000
C534	C	0.809080	0.686950	0.132970	-0.016000
C535	C	0.789480	0.677750	-0.022870	-0.017000
C536	C	0.777700	0.687310	-0.009580	-0.069000
C537	C	0.821540	0.676530	0.127010	0.039000
C538	C	0.843060	0.688030	0.126370	-0.077000
O539	O	0.765550	0.792780	0.271910	-0.181000
H540	H	0.787570	0.773180	0.232720	0.049000
H541	H	0.810980	0.730240	0.444510	0.048000
H542	H	0.831080	0.713410	0.435210	0.030000
H543	H	0.783300	0.663350	-0.162550	0.032000
H544	H	0.762660	0.679910	-0.130380	0.060000
H545	H	0.850570	0.704540	0.127240	0.046000
H546	H	0.794280	0.745570	0.261750	0.017000
C547	C	0.785630	0.805390	0.412920	-0.028000
H548	H	0.787780	0.820770	0.471600	0.043000
H549	H	0.797590	0.807350	0.221700	0.030000
H550	H	0.787520	0.798710	0.660090	0.041000
C551	C	0.728510	0.986550	0.247190	0.119000
C552	C	0.736830	0.507960	0.237600	-0.082000
C553	C	0.758060	0.521410	0.233190	-0.015000
C554	C	0.765500	0.543720	0.225680	0.043000
N555	N	0.784550	0.556950	0.160310	-0.110000
C556	C	0.793510	0.578830	0.149720	0.088000
C557	C	0.784160	0.589030	0.305310	-0.074000
C558	C	0.793880	0.610400	0.298690	-0.017000
C559	C	0.813050	0.622130	0.132970	-0.016000
C560	C	0.822250	0.611730	-0.022870	-0.017000
C561	C	0.812690	0.590390	-0.009580	-0.070000
C562	C	0.823470	0.645010	0.127010	0.039000
C563	C	0.811970	0.655030	0.126370	-0.077000
O564	O	0.707230	0.972780	0.271910	-0.181000
H565	H	0.726820	0.514390	0.232720	0.049000
H566	H	0.769770	0.580740	0.444510	0.048000
H567	H	0.786590	0.617660	0.435210	0.030000
H568	H	0.836650	0.619950	-0.162550	0.032000
H569	H	0.820090	0.582760	-0.130380	0.060000
H570	H	0.795460	0.646030	0.127240	0.046000
H571	H	0.754430	0.548710	0.261750	0.017000
C572	C	0.694610	0.980240	0.412920	-0.028000
H573	H	0.679240	0.967020	0.471600	0.043000
H574	H	0.692660	0.990250	0.221700	0.030000
H575	H	0.701290	0.988810	0.660090	0.041000
C576	C	0.513460	0.741970	0.247190	0.119000
C577	C	0.992040	0.728870	0.237600	-0.082000
C578	C	0.978590	0.736650	0.233190	-0.015000
C579	C	0.956290	0.721780	0.225680	0.042000
N580	N	0.943050	0.727600	0.160310	-0.110000
C581	C	0.921170	0.714680	0.149720	0.088000
C582	C	0.910970	0.695130	0.305310	-0.074000
C583	C	0.889600	0.683480	0.298690	-0.017000
C584	C	0.877870	0.690930	0.132970	-0.016000
C585	C	0.888270	0.710520	-0.022870	-0.017000
C586	C	0.909620	0.722300	-0.009580	-0.070000
C587	C	0.855000	0.678470	0.127010	0.039000
C588	C	0.844970	0.656940	0.126370	-0.077000
O589	O	0.527220	0.734450	0.271910	-0.181000
H590	H	0.985620	0.712440	0.232720	0.049000
H591	H	0.919260	0.689030	0.444510	0.048000
H592	H	0.882340	0.668930	0.435210	0.030000
H593	H	0.880050	0.716700	-0.162550	0.032000
H594	H	0.917250	0.737340	-0.130380	0.060000
H595	H	0.853970	0.649430	0.127240	0.046000
H596	H	0.951290	0.705720	0.261750	0.017000
C597	C	0.519760	0.714370	0.412920	-0.028000
H598	H	0.532990	0.712220	0.471600	0.043000
H599	H	0.509760	0.702410	0.221700	0.030000
H600	H	0.511190	0.712490	0.660090	0.041000
loop_
_geom_bond_atom_site_label_1
_geom_bond_atom_site_label_2
_geom_bond_distance
_geom_bond_site_symmetry_2
_ccdc_geom_bond_type
C1     C2      1.410   .     A
C1     O14     1.412   .     S
C1     C78     1.412   .     A
C2     C3      1.402   .     A
C2     H15     1.081   .     S
C3     C4      1.483   .     S
C3     C76     1.412   .     A
C4     N5      1.299   .     D
C4     H21     1.082   .     S
N5     C6      1.436   .     S
C6     C7      1.406   .     A
C6     C11     1.397   .     A
C7     C8      1.397   .     A
C7     H16     1.080   .     S
C8     C9      1.410   .     A
C8     H17     1.081   .     S
C9     C10     1.409   .     A
C9     C12     1.496   .     S
C10    C11     1.397   .     A
C10    H18     1.081   .     S
C11    H19     1.083   .     S
C12    C13     1.406   .     A
C12    C38     1.406   .     A
C13    H20     1.079   .     S
C13    C62     1.406   .     A
O14    C22     1.428   .     S
C22    H23     1.109   .     S
C22    H24     1.107   .     S
C22    H25     1.106   .     S
C26    C327    1.410   1_545 A
C26    O39     1.412   .     S
C26    C103    1.412   .     A
C27    C326    1.410   .     A
C27    C28     1.402   .     A
C27    H40     1.081   .     S
C28    C29     1.483   .     S
C28    C101    1.412   .     A
C29    N30     1.299   .     D
C29    H46     1.082   .     S
N30    C31     1.436   .     S
C31    C32     1.406   .     A
C31    C36     1.397   .     A
C32    C33     1.397   .     A
C32    H41     1.080   .     S
C33    C34     1.410   .     A
C33    H42     1.081   .     S
C34    C35     1.409   .     A
C34    C37     1.496   .     S
C35    C36     1.397   .     A
C35    H43     1.081   .     S
C36    H44     1.083   .     S
C37    C38     1.406   .     A
C37    C63     1.406   .     A
C38    H45     1.079   .     S
O39    C47     1.428   .     S
C47    H48     1.109   .     S
C47    H49     1.107   .     S
C47    H50     1.106   .     S
C51    C202    1.410   .     A
C51    O64     1.412   .     S
C51    C128    1.412   .     A
C52    C201    1.410   1_455 A
C52    C53     1.402   .     A
C52    H65     1.081   .     S
C53    C54     1.483   .     S
C53    C126    1.412   .     A
C54    N55     1.299   .     D
C54    H71     1.082   .     S
N55    C56     1.436   .     S
C56    C57     1.406   .     A
C56    C61     1.397   .     A
C57    C58     1.397   .     A
C57    H66     1.080   .     S
C58    C59     1.410   .     A
C58    H67     1.081   .     S
C59    C60     1.409   .     A
C59    C62     1.496   .     S
C60    C61     1.397   .     A
C60    H68     1.081   .     S
C61    H69     1.083   .     S
C62    C63     1.406   .     A
C63    H70     1.079   .     S
O64    C72     1.428   .     S
C72    H73     1.109   .     S
C72    H74     1.107   .     S
C72    H75     1.106   .     S
C76    C77     1.410   .     A
C76    O89     1.412   .     S
C77    C78     1.402   .     A
C77    H90     1.081   .     S
C78    C79     1.483   .     S
C79    N80     1.299   .     D
C79    H96     1.082   .     S
N80    C81     1.436   .     S
C81    C82     1.406   .     A
C81    C86     1.397   .     A
C82    C83     1.397   .     A
C82    H91     1.080   .     S
C83    C84     1.410   .     A
C83    H92     1.081   .     S
C84    C85     1.409   .     A
C84    C87     1.496   .     S
C85    C86     1.397   .     A
C85    H93     1.081   .     S
C86    H94     1.083   .     S
C87    C88     1.406   .     A
C87    C113    1.406   .     A
C88    H95     1.079   .     S
C88    C137    1.406   .     A
O89    C97     1.428   .     S
C97    H98     1.109   .     S
C97    H99     1.107   .     S
C97    H100    1.106   .     S
C101   C402    1.410   .     A
C101   O114    1.412   .     S
C102   C401    1.410   1_545 A
C102   C103    1.402   .     A
C102   H115    1.081   .     S
C103   C104    1.483   .     S
C104   N105    1.299   .     D
C104   H121    1.082   .     S
N105   C106    1.436   .     S
C106   C107    1.406   .     A
C106   C111    1.397   .     A
C107   C108    1.397   .     A
C107   H116    1.080   .     S
C108   C109    1.410   .     A
C108   H117    1.081   .     S
C109   C110    1.409   .     A
C109   C112    1.496   .     S
C110   C111    1.397   .     A
C110   H118    1.081   .     S
C111   H119    1.083   .     S
C112   C113    1.406   .     A
C112   C138    1.406   .     A
C113   H120    1.079   .     S
O114   C122    1.428   .     S
C122   H123    1.109   .     S
C122   H124    1.107   .     S
C122   H125    1.106   .     S
C126   C277    1.410   1_455 A
C126   O139    1.412   .     S
C127   C276    1.410   .     A
C127   C128    1.402   .     A
C127   H140    1.081   .     S
C128   C129    1.483   .     S
C129   N130    1.299   .     D
C129   H146    1.082   .     S
N130   C131    1.436   .     S
C131   C132    1.406   .     A
C131   C136    1.397   .     A
C132   C133    1.397   .     A
C132   H141    1.080   .     S
C133   C134    1.410   .     A
C133   H142    1.081   .     S
C134   C135    1.409   .     A
C134   C137    1.496   .     S
C135   C136    1.397   .     A
C135   H143    1.081   .     S
C136   H144    1.083   .     S
C137   C138    1.406   .     A
C138   H145    1.079   .     S
O139   C147    1.428   .     S
C147   H148    1.109   .     S
C147   H149    1.107   .     S
C147   H150    1.106   .     S
C151   C152    1.410   .     A
C151   O164    1.412   .     S
C151   C228    1.412   .     A
C152   C153    1.402   .     A
C152   H165    1.081   .     S
C153   C154    1.483   .     S
C153   C226    1.412   .     A
C154   N155    1.299   .     D
C154   H171    1.082   .     S
N155   C156    1.436   .     S
C156   C157    1.406   .     A
C156   C161    1.397   .     A
C157   C158    1.397   .     A
C157   H166    1.080   .     S
C158   C159    1.410   .     A
C158   H167    1.081   .     S
C159   C160    1.409   .     A
C159   C162    1.496   .     S
C160   C161    1.397   .     A
C160   H168    1.081   .     S
C161   H169    1.083   .     S
C162   C163    1.406   .     A
C162   C188    1.406   .     A
C163   H170    1.079   .     S
C163   C212    1.406   .     A
O164   C172    1.428   .     S
C172   H173    1.109   .     S
C172   H174    1.107   .     S
C172   H175    1.106   .     S
C176   C477    1.410   1_545 A
C176   O189    1.412   .     S
C176   C253    1.412   .     A
C177   C476    1.410   .     A
C177   C178    1.402   .     A
C177   H190    1.081   .     S
C178   C179    1.483   .     S
C178   C251    1.412   .     A
C179   N180    1.299   .     D
C179   H196    1.082   .     S
N180   C181    1.436   .     S
C181   C182    1.406   .     A
C181   C186    1.397   .     A
C182   C183    1.397   .     A
C182   H191    1.080   .     S
C183   C184    1.410   .     A
C183   H192    1.081   .     S
C184   C185    1.409   .     A
C184   C187    1.496   .     S
C185   C186    1.397   .     A
C185   H193    1.081   .     S
C186   H194    1.083   .     S
C187   C188    1.406   .     A
C187   C213    1.406   .     A
C188   H195    1.079   .     S
O189   C197    1.428   .     S
C197   H198    1.109   .     S
C197   H199    1.107   .     S
C197   H200    1.106   .     S
C201   C52     1.410   1_655 A
C201   O214    1.412   .     S
C201   C278    1.412   .     A
C202   C203    1.402   .     A
C202   H215    1.081   .     S
C203   C204    1.483   .     S
C203   C276    1.412   .     A
C204   N205    1.299   .     D
C204   H221    1.082   .     S
N205   C206    1.436   .     S
C206   C207    1.406   .     A
C206   C211    1.397   .     A
C207   C208    1.397   .     A
C207   H216    1.080   .     S
C208   C209    1.410   .     A
C208   H217    1.081   .     S
C209   C210    1.409   .     A
C209   C212    1.496   .     S
C210   C211    1.397   .     A
C210   H218    1.081   .     S
C211   H219    1.083   .     S
C212   C213    1.406   .     A
C213   H220    1.079   .     S
O214   C222    1.428   .     S
C222   H223    1.109   .     S
C222   H224    1.107   .     S
C222   H225    1.106   .     S
C226   C227    1.410   .     A
C226   O239    1.412   .     S
C227   C228    1.402   .     A
C227   H240    1.081   .     S
C228   C229    1.483   .     S
C229   N230    1.299   .     D
C229   H246    1.082   .     S
N230   C231    1.436   .     S
C231   C232    1.406   .     A
C231   C236    1.397   .     A
C232   C233    1.397   .     A
C232   H241    1.080   .     S
C233   C234    1.410   .     A
C233   H242    1.081   .     S
C234   C235    1.409   .     A
C234   C237    1.496   .     S
C235   C236    1.397   .     A
C235   H243    1.081   .     S
C236   H244    1.083   .     S
C237   C238    1.406   .     A
C237   C263    1.406   .     A
C238   H245    1.079   .     S
C238   C287    1.406   .     A
O239   C247    1.428   .     S
C247   H248    1.109   .     S
C247   H249    1.107   .     S
C247   H250    1.106   .     S
C251   C552    1.410   .     A
C251   O264    1.412   .     S
C252   C551    1.410   1_545 A
C252   C253    1.402   .     A
C252   H265    1.081   .     S
C253   C254    1.483   .     S
C254   N255    1.299   .     D
C254   H271    1.082   .     S
N255   C256    1.436   .     S
C256   C257    1.406   .     A
C256   C261    1.397   .     A
C257   C258    1.397   .     A
C257   H266    1.080   .     S
C258   C259    1.410   .     A
C258   H267    1.081   .     S
C259   C260    1.409   .     A
C259   C262    1.496   .     S
C260   C261    1.397   .     A
C260   H268    1.081   .     S
C261   H269    1.083   .     S
C262   C263    1.406   .     A
C262   C288    1.406   .     A
C263   H270    1.079   .     S
O264   C272    1.428   .     S
C272   H273    1.109   .     S
C272   H274    1.107   .     S
C272   H275    1.106   .     S
C276   O289    1.412   .     S
C277   C126    1.410   1_655 A
C277   C278    1.402   .     A
C277   H290    1.081   .     S
C278   C279    1.483   .     S
C279   N280    1.299   .     D
C279   H296    1.082   .     S
N280   C281    1.436   .     S
C281   C282    1.406   .     A
C281   C286    1.397   .     A
C282   C283    1.397   .     A
C282   H291    1.080   .     S
C283   C284    1.410   .     A
C283   H292    1.081   .     S
C284   C285    1.409   .     A
C284   C287    1.496   .     S
C285   C286    1.397   .     A
C285   H293    1.081   .     S
C286   H294    1.083   .     S
C287   C288    1.406   .     A
C288   H295    1.079   .     S
O289   C297    1.428   .     S
C297   H298    1.109   .     S
C297   H299    1.107   .     S
C297   H300    1.106   .     S
C301   C302    1.410   .     A
C301   O314    1.412   .     S
C301   C378    1.412   .     A
C302   C303    1.402   .     A
C302   H315    1.081   .     S
C303   C304    1.483   .     S
C303   C376    1.412   .     A
C304   N305    1.299   .     D
C304   H321    1.082   .     S
N305   C306    1.436   .     S
C306   C307    1.406   .     A
C306   C311    1.397   .     A
C307   C308    1.397   .     A
C307   H316    1.080   .     S
C308   C309    1.410   .     A
C308   H317    1.081   .     S
C309   C310    1.409   .     A
C309   C312    1.496   .     S
C310   C311    1.397   .     A
C310   H318    1.081   .     S
C311   H319    1.083   .     S
C312   C313    1.406   .     A
C312   C338    1.406   .     A
C313   H320    1.079   .     S
C313   C362    1.406   .     A
O314   C322    1.428   .     S
C322   H323    1.109   .     S
C322   H324    1.107   .     S
C322   H325    1.106   .     S
C326   O339    1.412   .     S
C326   C403    1.412   .     A
C327   C26     1.410   1_565 A
C327   C328    1.402   .     A
C327   H340    1.081   .     S
C328   C329    1.483   .     S
C328   C401    1.412   .     A
C329   N330    1.299   .     D
C329   H346    1.082   .     S
N330   C331    1.436   .     S
C331   C332    1.406   .     A
C331   C336    1.397   .     A
C332   C333    1.397   .     A
C332   H341    1.080   .     S
C333   C334    1.410   .     A
C333   H342    1.081   .     S
C334   C335    1.409   .     A
C334   C337    1.496   .     S
C335   C336    1.397   .     A
C335   H343    1.081   .     S
C336   H344    1.083   .     S
C337   C338    1.406   .     A
C337   C363    1.406   .     A
C338   H345    1.079   .     S
O339   C347    1.428   .     S
C347   H348    1.109   .     S
C347   H349    1.107   .     S
C347   H350    1.106   .     S
C351   C502    1.410   .     A
C351   O364    1.412   .     S
C351   C428    1.412   .     A
C352   C501    1.410   1_455 A
C352   C353    1.402   .     A
C352   H365    1.081   .     S
C353   C354    1.483   .     S
C353   C426    1.412   .     A
C354   N355    1.299   .     D
C354   H371    1.082   .     S
N355   C356    1.436   .     S
C356   C357    1.406   .     A
C356   C361    1.397   .     A
C357   C358    1.397   .     A
C357   H366    1.080   .     S
C358   C359    1.410   .     A
C358   H367    1.081   .     S
C359   C360    1.409   .     A
C359   C362    1.496   .     S
C360   C361    1.397   .     A
C360   H368    1.081   .     S
C361   H369    1.083   .     S
C362   C363    1.406   .     A
C363   H370    1.079   .     S
O364   C372    1.428   .     S
C372   H373    1.109   .     S
C372   H374    1.107   .     S
C372   H375    1.106   .     S
C376   C377    1.410   .     A
C376   O389    1.412   .     S
C377   C378    1.402   .     A
C377   H390    1.081   .     S
C378   C379    1.483   .     S
C379   N380    1.299   .     D
C379   H396    1.082   .     S
N380   C381    1.436   .     S
C381   C382    1.406   .     A
C381   C386    1.397   .     A
C382   C383    1.397   .     A
C382   H391    1.080   .     S
C383   C384    1.410   .     A
C383   H392    1.081   .     S
C384   C385    1.409   .     A
C384   C387    1.496   .     S
C385   C386    1.397   .     A
C385   H393    1.081   .     S
C386   H394    1.083   .     S
C387   C388    1.406   .     A
C387   C413    1.406   .     A
C388   H395    1.079   .     S
C388   C437    1.406   .     A
O389   C397    1.428   .     S
C397   H398    1.109   .     S
C397   H399    1.107   .     S
C397   H400    1.106   .     S
C401   C102    1.410   1_565 A
C401   O414    1.412   .     S
C402   C403    1.402   .     A
C402   H415    1.081   .     S
C403   C404    1.483   .     S
C404   N405    1.299   .     D
C404   H421    1.082   .     S
N405   C406    1.436   .     S
C406   C407    1.406   .     A
C406   C411    1.397   .     A
C407   C408    1.397   .     A
C407   H416    1.080   .     S
C408   C409    1.410   .     A
C408   H417    1.081   .     S
C409   C410    1.409   .     A
C409   C412    1.496   .     S
C410   C411    1.397   .     A
C410   H418    1.081   .     S
C411   H419    1.083   .     S
C412   C413    1.406   .     A
C412   C438    1.406   .     A
C413   H420    1.079   .     S
O414   C422    1.428   .     S
C422   H423    1.109   .     S
C422   H424    1.107   .     S
C422   H425    1.106   .     S
C426   C577    1.410   1_455 A
C426   O439    1.412   .     S
C427   C576    1.410   .     A
C427   C428    1.402   .     A
C427   H440    1.081   .     S
C428   C429    1.483   .     S
C429   N430    1.299   .     D
C429   H446    1.082   .     S
N430   C431    1.436   .     S
C431   C432    1.406   .     A
C431   C436    1.397   .     A
C432   C433    1.397   .     A
C432   H441    1.080   .     S
C433   C434    1.410   .     A
C433   H442    1.081   .     S
C434   C435    1.409   .     A
C434   C437    1.496   .     S
C435   C436    1.397   .     A
C435   H443    1.081   .     S
C436   H444    1.083   .     S
C437   C438    1.406   .     A
C438   H445    1.079   .     S
O439   C447    1.428   .     S
C447   H448    1.109   .     S
C447   H449    1.107   .     S
C447   H450    1.106   .     S
C451   C452    1.410   .     A
C451   O464    1.412   .     S
C451   C528    1.412   .     A
C452   C453    1.402   .     A
C452   H465    1.081   .     S
C453   C454    1.483   .     S
C453   C526    1.412   .     A
C454   N455    1.299   .     D
C454   H471    1.082   .     S
N455   C456    1.436   .     S
C456   C457    1.406   .     A
C456   C461    1.397   .     A
C457   C458    1.397   .     A
C457   H466    1.080   .     S
C458   C459    1.410   .     A
C458   H467    1.081   .     S
C459   C460    1.409   .     A
C459   C462    1.496   .     S
C460   C461    1.397   .     A
C460   H468    1.081   .     S
C461   H469    1.083   .     S
C462   C463    1.406   .     A
C462   C488    1.406   .     A
C463   H470    1.079   .     S
C463   C512    1.406   .     A
O464   C472    1.428   .     S
C472   H473    1.109   .     S
C472   H474    1.107   .     S
C472   H475    1.106   .     S
C476   O489    1.412   .     S
C476   C553    1.412   .     A
C477   C176    1.410   1_565 A
C477   C478    1.402   .     A
C477   H490    1.081   .     S
C478   C479    1.483   .     S
C478   C551    1.412   .     A
C479   N480    1.299   .     D
C479   H496    1.082   .     S
N480   C481    1.436   .     S
C481   C482    1.406   .     A
C481   C486    1.397   .     A
C482   C483    1.397   .     A
C482   H491    1.080   .     S
C483   C484    1.410   .     A
C483   H492    1.081   .     S
C484   C485    1.409   .     A
C484   C487    1.496   .     S
C485   C486    1.397   .     A
C485   H493    1.081   .     S
C486   H494    1.083   .     S
C487   C488    1.406   .     A
C487   C513    1.406   .     A
C488   H495    1.079   .     S
O489   C497    1.428   .     S
C497   H498    1.109   .     S
C497   H499    1.107   .     S
C497   H500    1.106   .     S
C501   C352    1.410   1_655 A
C501   O514    1.412   .     S
C501   C578    1.412   .     A
C502   C503    1.402   .     A
C502   H515    1.081   .     S
C503   C504    1.483   .     S
C503   C576    1.412   .     A
C504   N505    1.299   .     D
C504   H521    1.082   .     S
N505   C506    1.436   .     S
C506   C507    1.406   .     A
C506   C511    1.397   .     A
C507   C508    1.397   .     A
C507   H516    1.080   .     S
C508   C509    1.410   .     A
C508   H517    1.081   .     S
C509   C510    1.409   .     A
C509   C512    1.496   .     S
C510   C511    1.397   .     A
C510   H518    1.081   .     S
C511   H519    1.083   .     S
C512   C513    1.406   .     A
C513   H520    1.079   .     S
O514   C522    1.428   .     S
C522   H523    1.109   .     S
C522   H524    1.107   .     S
C522   H525    1.106   .     S
C526   C527    1.410   .     A
C526   O539    1.412   .     S
C527   C528    1.402   .     A
C527   H540    1.081   .     S
C528   C529    1.483   .     S
C529   N530    1.299   .     D
C529   H546    1.082   .     S
N530   C531    1.436   .     S
C531   C532    1.406   .     A
C531   C536    1.397   .     A
C532   C533    1.397   .     A
C532   H541    1.080   .     S
C533   C534    1.410   .     A
C533   H542    1.081   .     S
C534   C535    1.409   .     A
C534   C537    1.496   .     S
C535   C536    1.397   .     A
C535   H543    1.081   .     S
C536   H544    1.083   .     S
C537   C538    1.406   .     A
C537   C563    1.406   .     A
C538   H545    1.079   .     S
C538   C587    1.406   .     A
O539   C547    1.428   .     S
C547   H548    1.109   .     S
C547   H549    1.107   .     S
C547   H550    1.106   .     S
C551   C252    1.410   1_565 A
C551   O564    1.412   .     S
C552   C553    1.402   .     A
C552   H565    1.081   .     S
C553   C554    1.483   .     S
C554   N555    1.299   .     D
C554   H571    1.082   .     S
N555   C556    1.436   .     S
C556   C557    1.406   .     A
C556   C561    1.397   .     A
C557   C558    1.397   .     A
C557   H566    1.080   .     S
C558   C559    1.410   .     A
C558   H567    1.081   .     S
C559   C560    1.409   .     A
C559   C562    1.496   .     S
C560   C561    1.397   .     A
C560   H568    1.081   .     S
C561   H569    1.083   .     S
C562   C563    1.406   .     A
C562   C588    1.406   .     A
C563   H570    1.079   .     S
O564   C572    1.428   .     S
C572   H573    1.109   .     S
C572   H574    1.107   .     S
C572   H575    1.106   .     S
C576   O589    1.412   .     S
C577   C426    1.410   1_655 A
C577   C578    1.402   .     A
C577   H590    1.081   .     S
C578   C579    1.483   .     S
C579   N580    1.299   .     D
C579   H596    1.082   .     S
N580   C581    1.436   .     S
C581   C582    1.406   .     A
C581   C586    1.397   .     A
C582   C583    1.397   .     A
C582   H591    1.080   .     S
C583   C584    1.410   .     A
C583   H592    1.081   .     S
C584   C585    1.409   .     A
C584   C587    1.496   .     S
C585   C586    1.397   .     A
C585   H593    1.081   .     S
C586   H594    1.083   .     S
C587   C588    1.406   .     A
C588   H595    1.079   .     S
O589   C597    1.428   .     S
C597   H598    1.109   .     S
C597   H599    1.107   .     S
C597   H600    1.106   .     S