data_functionalizedCrystal
_audit_creation_method	'EQeq! by Chris Wilmer'
_symmetry_space_group_name_H-M	'P1'
_symmetry_Int_Tables_number	1
_symmetry_cell_setting	triclinic
loop_
_symmetry_equiv_pos_as_xyz
  x,y,z
_cell_length_a	75.370200
_cell_length_b	75.370200
_cell_length_c	7.578600
_cell_angle_alpha	90.000000
_cell_angle_beta	90.000000
_cell_angle_gamma	120.000000
loop_
_atom_site_label
_atom_site_type_symbol
_atom_site_fract_x
_atom_site_fract_y
_atom_site_fract_z
_atom_site_charge
cgC 	C 	0.413590	0.067840	0.085860	0.117000
cgC 	C 	0.400490	0.076160	0.081070	-0.080000
cgC 	C 	0.408270	0.097390	0.078860	-0.016000
cgC 	C 	0.393400	0.104820	0.075110	0.040000
cgN 	N 	0.399220	0.123880	0.042420	-0.112000
cgC 	C 	0.386300	0.132840	0.037130	0.087000
cgC 	C 	0.366750	0.123480	0.114920	-0.072000
cgC 	C 	0.355100	0.133200	0.111610	-0.017000
cgC 	C 	0.362550	0.152380	0.028750	-0.012000
cgC 	C 	0.382140	0.161570	-0.049170	-0.021000
cgC 	C 	0.393920	0.152010	-0.042520	-0.067000
cgC 	C 	0.350090	0.162800	0.025770	0.041000
cgC 	C 	0.328560	0.151300	0.025450	-0.075000
cgO 	O 	0.406070	0.046550	0.098220	-0.183000
cgH 	H 	0.384060	0.066150	0.078630	0.054000
cgH 	H 	0.360650	0.109090	0.184520	0.051000
cgH 	H 	0.340550	0.125910	0.179870	0.033000
cgH 	H 	0.388320	0.175970	-0.119010	0.035000
cgH 	H 	0.408960	0.159420	-0.102920	0.057000
cgH 	H 	0.321050	0.134780	0.025890	0.053000
cgH 	H 	0.377340	0.093760	0.093140	0.023000
cgC 	C 	0.385990	0.033940	0.168730	-0.029000
cgH 	H 	0.383840	0.018560	0.198070	0.045000
cgH 	H 	0.374030	0.031980	0.073120	0.039000
cgH 	H 	0.384110	0.040620	0.292310	0.040000
cgC 	C 	0.443110	0.352780	0.085860	0.116000
cgC 	C 	0.434790	0.331370	0.081070	-0.081000
cgC 	C 	0.413560	0.317920	0.078860	-0.017000
cgC 	C 	0.406130	0.295610	0.075110	0.039000
cgN 	N 	0.387070	0.282380	0.042420	-0.113000
cgC 	C 	0.378110	0.260500	0.037130	0.087000
cgC 	C 	0.387470	0.250300	0.114920	-0.073000
cgC 	C 	0.377750	0.228930	0.111610	-0.017000
cgC 	C 	0.358570	0.217200	0.028750	-0.016000
cgC 	C 	0.349380	0.227600	-0.049170	-0.017000
cgC 	C 	0.358940	0.248940	-0.042520	-0.070000
cgC 	C 	0.348150	0.194320	0.025770	0.040000
cgC 	C 	0.359650	0.184300	0.025450	-0.077000
cgO 	O 	0.464400	0.366550	0.098220	-0.184000
cgH 	H 	0.444800	0.324940	0.078630	0.053000
cgH 	H 	0.401860	0.258590	0.184520	0.050000
cgH 	H 	0.385040	0.221670	0.179870	0.032000
cgH 	H 	0.334980	0.219380	-0.119010	0.030000
cgH 	H 	0.351530	0.256570	-0.102920	0.057000
cgH 	H 	0.376170	0.193300	0.025890	0.053000
cgH 	H 	0.417190	0.290620	0.093140	0.022000
cgC 	C 	0.477010	0.359090	0.168730	-0.029000
cgH 	H 	0.492390	0.372310	0.198070	0.044000
cgH 	H 	0.478970	0.349080	0.073120	0.037000
cgH 	H 	0.470330	0.350520	0.292310	0.040000
cgC 	C 	0.158170	0.097360	0.085860	0.116000
cgC 	C 	0.179580	0.110460	0.081070	-0.081000
cgC 	C 	0.193030	0.102680	0.078860	-0.017000
cgC 	C 	0.215340	0.117550	0.075110	0.039000
cgN 	N 	0.228570	0.111730	0.042420	-0.113000
cgC 	C 	0.250450	0.124650	0.037130	0.087000
cgC 	C 	0.260650	0.144200	0.114920	-0.073000
cgC 	C 	0.282020	0.155850	0.111610	-0.019000
cgC 	C 	0.293750	0.148400	0.028750	-0.014000
cgC 	C 	0.283350	0.128810	-0.049170	-0.018000
cgC 	C 	0.262010	0.117030	-0.042520	-0.070000
cgC 	C 	0.316630	0.160860	0.025770	0.041000
cgC 	C 	0.326650	0.182390	0.025450	-0.077000
cgO 	O 	0.144400	0.104880	0.098220	-0.184000
cgH 	H 	0.186010	0.126890	0.078630	0.053000
cgH 	H 	0.252360	0.150300	0.184520	0.050000
cgH 	H 	0.289280	0.170400	0.179870	0.034000
cgH 	H 	0.291570	0.122630	-0.119010	0.032000
cgH 	H 	0.254380	0.101990	-0.102920	0.057000
cgH 	H 	0.317650	0.189900	0.025890	0.052000
cgH 	H 	0.220330	0.133610	0.093140	0.022000
cgC 	C 	0.151860	0.124960	0.168730	-0.030000
cgH 	H 	0.138640	0.127110	0.198070	0.044000
cgH 	H 	0.161870	0.136920	0.073120	0.037000
cgH 	H 	0.160430	0.126840	0.292310	0.040000
cgC 	C 	0.429660	0.110820	0.085860	0.116000
cgC 	C 	0.442750	0.102500	0.081070	-0.081000
cgC 	C 	0.434970	0.081270	0.078860	-0.017000
cgC 	C 	0.449840	0.073830	0.075110	0.039000
cgN 	N 	0.444020	0.054780	0.042420	-0.113000
cgC 	C 	0.456940	0.045820	0.037130	0.086000
cgC 	C 	0.476500	0.055170	0.114920	-0.073000
cgC 	C 	0.488150	0.045450	0.111610	-0.017000
cgC 	C 	0.480700	0.026280	0.028750	-0.015000
cgC 	C 	0.461110	0.017080	-0.049170	-0.018000
cgC 	C 	0.449320	0.026640	-0.042520	-0.070000
cgC 	C 	0.493160	0.015860	0.025770	0.038000
cgC 	C 	0.014680	0.027360	0.025450	-0.078000
cgO 	O 	0.437180	0.132100	0.098220	-0.184000
cgH 	H 	0.459190	0.112510	0.078630	0.052000
cgH 	H 	0.482600	0.069560	0.184520	0.049000
cgH 	H 	0.002700	0.052740	0.179870	0.033000
cgH 	H 	0.454930	0.002680	-0.119010	0.034000
cgH 	H 	0.434290	0.019240	-0.102920	0.058000
cgH 	H 	0.022200	0.043870	0.025890	0.049000
cgH 	H 	0.465900	0.084900	0.093140	0.020000
cgC 	C 	0.457250	0.144720	0.168730	-0.030000
cgH 	H 	0.459400	0.160090	0.198070	0.044000
cgH 	H 	0.469210	0.146670	0.073120	0.037000
cgH 	H 	0.459140	0.138040	0.292310	0.039000
cgC 	C 	0.400130	0.325870	0.085860	0.116000
cgC 	C 	0.408450	0.347290	0.081070	-0.081000
cgC 	C 	0.429680	0.360740	0.078860	-0.017000
cgC 	C 	0.437120	0.383040	0.075110	0.039000
cgN 	N 	0.456170	0.396280	0.042420	-0.113000
cgC 	C 	0.465130	0.418160	0.037130	0.086000
cgC 	C 	0.455780	0.428360	0.114920	-0.073000
cgC 	C 	0.465500	0.449730	0.111610	-0.017000
cgC 	C 	0.484670	0.461450	0.028750	-0.015000
cgC 	C 	0.493870	0.451060	-0.049170	-0.018000
cgC 	C 	0.484310	0.429710	-0.042520	-0.070000
cgC 	C 	0.495090	0.484330	0.025770	0.038000
cgC 	C 	0.483590	0.494360	0.025450	-0.078000
cgO 	O 	0.378850	0.312110	0.098220	-0.184000
cgH 	H 	0.398440	0.353710	0.078630	0.052000
cgH 	H 	0.441390	0.420070	0.184520	0.049000
cgH 	H 	0.458210	0.456990	0.179870	0.033000
cgH 	H 	0.008270	0.459280	-0.119010	0.034000
cgH 	H 	0.491710	0.422080	-0.102920	0.058000
cgH 	H 	0.467080	0.485360	0.025890	0.049000
cgH 	H 	0.426050	0.388040	0.093140	0.020000
cgC 	C 	0.366230	0.319570	0.168730	-0.030000
cgH 	H 	0.350860	0.306340	0.198070	0.044000
cgH 	H 	0.364280	0.329570	0.073120	0.037000
cgH 	H 	0.372910	0.328130	0.292310	0.039000
cgC 	C 	0.185080	0.081290	0.085860	0.116000
cgC 	C 	0.163660	0.068200	0.081070	-0.081000
cgC 	C 	0.150210	0.075980	0.078860	-0.017000
cgC 	C 	0.127910	0.061110	0.075110	0.039000
cgN 	N 	0.114670	0.066930	0.042420	-0.113000
cgC 	C 	0.092790	0.054010	0.037130	0.086000
cgC 	C 	0.082590	0.034450	0.114920	-0.073000
cgC 	C 	0.061220	0.022800	0.111610	-0.017000
cgC 	C 	0.049500	0.030250	0.028750	-0.015000
cgC 	C 	0.059890	0.049840	-0.049170	-0.018000
cgC 	C 	0.081240	0.061630	-0.042520	-0.070000
cgC 	C 	0.026620	0.017790	0.025770	0.038000
cgC 	C 	0.016590	0.496270	0.025450	-0.078000
cgO 	O 	0.198840	0.073770	0.098220	-0.184000
cgH 	H 	0.157240	0.051760	0.078630	0.052000
cgH 	H 	0.090880	0.028350	0.184520	0.049000
cgH 	H 	0.053960	0.008250	0.179870	0.033000
cgH 	H 	0.051670	0.056020	-0.119010	0.034000
cgH 	H 	0.088870	0.076660	-0.102920	0.058000
cgH 	H 	0.025590	0.488750	0.025890	0.049000
cgH 	H 	0.122910	0.045050	0.093140	0.020000
cgC 	C 	0.191380	0.053700	0.168730	-0.029000
cgH 	H 	0.204610	0.051550	0.198070	0.044000
cgH 	H 	0.181380	0.041740	0.073120	0.037000
cgH 	H 	0.182820	0.051810	0.292310	0.039000
cgC 	C 	0.241970	0.228510	0.623600	0.116000
cgC 	C 	0.228870	0.236830	0.618800	-0.081000
cgC 	C 	0.236650	0.258060	0.616600	-0.018000
cgC 	C 	0.221780	0.265500	0.612840	0.039000
cgN 	N 	0.227600	0.284550	0.580150	-0.113000
cgC 	C 	0.214680	0.293510	0.574860	0.086000
cgC 	C 	0.195130	0.284160	0.652660	-0.073000
cgC 	C 	0.183480	0.293880	0.649350	-0.017000
cgC 	C 	0.190930	0.313050	0.566490	-0.015000
cgC 	C 	0.210520	0.322250	0.488570	-0.018000
cgC 	C 	0.222300	0.312690	0.495210	-0.070000
cgC 	C 	0.178470	0.323470	0.563510	0.038000
cgC 	C 	0.156940	0.311970	0.563180	-0.078000
cgO 	O 	0.234450	0.207230	0.635960	-0.185000
cgH 	H 	0.212440	0.226820	0.616360	0.052000
cgH 	H 	0.189030	0.269770	0.722250	0.049000
cgH 	H 	0.168930	0.286590	0.717610	0.032000
cgH 	H 	0.216700	0.336650	0.418730	0.034000
cgH 	H 	0.237340	0.320090	0.434810	0.058000
cgH 	H 	0.149430	0.295460	0.563620	0.049000
cgH 	H 	0.205720	0.254430	0.630880	0.020000
cgC 	C 	0.214370	0.194610	0.706460	-0.029000
cgH 	H 	0.212220	0.179240	0.735800	0.043000
cgH 	H 	0.202410	0.192660	0.610850	0.037000
cgH 	H 	0.212490	0.201290	0.830050	0.039000
cgC 	C 	0.271490	0.013450	0.623600	0.116000
cgC 	C 	0.263170	0.492040	0.618800	-0.081000
cgC 	C 	0.241940	0.478590	0.616600	-0.017000
cgC 	C 	0.234500	0.456290	0.612840	0.039000
cgN 	N 	0.215450	0.443050	0.580150	-0.113000
cgC 	C 	0.206490	0.421170	0.574860	0.086000
cgC 	C 	0.215840	0.410970	0.652660	-0.073000
cgC 	C 	0.206120	0.389600	0.649350	-0.017000
cgC 	C 	0.186950	0.377870	0.566490	-0.015000
cgC 	C 	0.177750	0.388270	0.488570	-0.018000
cgC 	C 	0.187310	0.409620	0.495210	-0.070000
cgC 	C 	0.176530	0.354990	0.563510	0.038000
cgC 	C 	0.188030	0.344970	0.563180	-0.078000
cgO 	O 	0.292770	0.027220	0.635960	-0.185000
cgH 	H 	0.273180	0.485620	0.616360	0.052000
cgH 	H 	0.230230	0.419260	0.722250	0.049000
cgH 	H 	0.213410	0.382340	0.717610	0.032000
cgH 	H 	0.163350	0.380050	0.418730	0.034000
cgH 	H 	0.179910	0.417250	0.434810	0.058000
cgH 	H 	0.204540	0.353970	0.563620	0.049000
cgH 	H 	0.245570	0.451290	0.630880	0.020000
cgC 	C 	0.305390	0.019760	0.706460	-0.029000
cgH 	H 	0.320760	0.032990	0.735800	0.043000
cgH 	H 	0.307340	0.009750	0.610850	0.037000
cgH 	H 	0.298710	0.011200	0.830050	0.039000
cgC 	C 	0.486550	0.258030	0.623600	0.116000
cgC 	C 	0.007960	0.271130	0.618800	-0.081000
cgC 	C 	0.021410	0.263350	0.616600	-0.018000
cgC 	C 	0.043720	0.278220	0.612840	0.039000
cgN 	N 	0.056950	0.272400	0.580150	-0.113000
cgC 	C 	0.078830	0.285320	0.574860	0.086000
cgC 	C 	0.089030	0.304880	0.652660	-0.073000
cgC 	C 	0.110400	0.316530	0.649350	-0.018000
cgC 	C 	0.122130	0.309070	0.566490	-0.015000
cgC 	C 	0.111730	0.289480	0.488570	-0.018000
cgC 	C 	0.090390	0.277700	0.495210	-0.069000
cgC 	C 	0.145010	0.321540	0.563510	0.038000
cgC 	C 	0.155030	0.343060	0.563180	-0.078000
cgO 	O 	0.472780	0.265550	0.635960	-0.184000
cgH 	H 	0.014390	0.287560	0.616360	0.052000
cgH 	H 	0.080740	0.310980	0.722250	0.049000
cgH 	H 	0.117660	0.331080	0.717610	0.032000
cgH 	H 	0.119950	0.283300	0.418730	0.034000
cgH 	H 	0.082760	0.262660	0.434810	0.058000
cgH 	H 	0.146030	0.350580	0.563620	0.049000
cgH 	H 	0.048710	0.294280	0.630880	0.020000
cgC 	C 	0.480240	0.285630	0.706460	-0.029000
cgH 	H 	0.467020	0.287780	0.735800	0.043000
cgH 	H 	0.490250	0.297590	0.610850	0.037000
cgH 	H 	0.488810	0.287510	0.830050	0.039000
cgC 	C 	0.258030	0.271490	0.623600	0.116000
cgC 	C 	0.271130	0.263170	0.618800	-0.081000
cgC 	C 	0.263350	0.241940	0.616600	-0.017000
cgC 	C 	0.278220	0.234500	0.612840	0.039000
cgN 	N 	0.272400	0.215450	0.580150	-0.113000
cgC 	C 	0.285320	0.206490	0.574860	0.086000
cgC 	C 	0.304870	0.215840	0.652660	-0.075000
cgC 	C 	0.316520	0.206120	0.649350	-0.017000
cgC 	C 	0.309070	0.186950	0.566490	-0.015000
cgC 	C 	0.289480	0.177750	0.488570	-0.020000
cgC 	C 	0.277700	0.187310	0.495210	-0.070000
cgC 	C 	0.321530	0.176530	0.563510	0.040000
cgC 	C 	0.343060	0.188030	0.563180	-0.077000
cgO 	O 	0.265550	0.292770	0.635960	-0.184000
cgH 	H 	0.287560	0.273180	0.616360	0.053000
cgH 	H 	0.310970	0.230230	0.722250	0.049000
cgH 	H 	0.331080	0.213410	0.717610	0.028000
cgH 	H 	0.283300	0.163350	0.418730	0.034000
cgH 	H 	0.262660	0.179910	0.434810	0.056000
cgH 	H 	0.350570	0.204540	0.563620	0.052000
cgH 	H 	0.294280	0.245570	0.630880	0.021000
cgC 	C 	0.285630	0.305390	0.706460	-0.029000
cgH 	H 	0.287780	0.320760	0.735800	0.044000
cgH 	H 	0.297590	0.307340	0.610850	0.037000
cgH 	H 	0.287510	0.298710	0.830050	0.039000
cgC 	C 	0.228510	0.486550	0.623600	0.116000
cgC 	C 	0.236830	0.007960	0.618800	-0.081000
cgC 	C 	0.258060	0.021410	0.616600	-0.017000
cgC 	C 	0.265500	0.043720	0.612840	0.039000
cgN 	N 	0.284550	0.056950	0.580150	-0.113000
cgC 	C 	0.293510	0.078830	0.574860	0.087000
cgC 	C 	0.284160	0.089030	0.652660	-0.074000
cgC 	C 	0.293880	0.110400	0.649350	-0.017000
cgC 	C 	0.313050	0.122130	0.566490	-0.016000
cgC 	C 	0.322250	0.111730	0.488570	-0.018000
cgC 	C 	0.312690	0.090390	0.495210	-0.070000
cgC 	C 	0.323470	0.145010	0.563510	0.040000
cgC 	C 	0.311970	0.155030	0.563180	-0.078000
cgO 	O 	0.207230	0.472780	0.635960	-0.184000
cgH 	H 	0.226820	0.014380	0.616360	0.052000
cgH 	H 	0.269770	0.080740	0.722250	0.050000
cgH 	H 	0.286590	0.117660	0.717610	0.028000
cgH 	H 	0.336650	0.119950	0.418730	0.031000
cgH 	H 	0.320090	0.082760	0.434810	0.057000
cgH 	H 	0.295460	0.146030	0.563620	0.052000
cgH 	H 	0.254430	0.048710	0.630880	0.021000
cgC 	C 	0.194610	0.480240	0.706460	-0.029000
cgH 	H 	0.179240	0.467020	0.735800	0.044000
cgH 	H 	0.192660	0.490250	0.610850	0.037000
cgH 	H 	0.201290	0.488810	0.830050	0.039000
cgC 	C 	0.013450	0.241970	0.623600	0.116000
cgC 	C 	0.492040	0.228870	0.618800	-0.081000
cgC 	C 	0.478590	0.236650	0.616600	-0.017000
cgC 	C 	0.456280	0.221780	0.612840	0.039000
cgN 	N 	0.443050	0.227600	0.580150	-0.113000
cgC 	C 	0.421170	0.214680	0.574860	0.086000
cgC 	C 	0.410970	0.195130	0.652660	-0.073000
cgC 	C 	0.389600	0.183480	0.649350	-0.022000
cgC 	C 	0.377870	0.190930	0.566490	-0.013000
cgC 	C 	0.388270	0.210520	0.488570	-0.019000
cgC 	C 	0.409620	0.222300	0.495210	-0.070000
cgC 	C 	0.354990	0.178470	0.563510	0.040000
cgC 	C 	0.344970	0.156940	0.563180	-0.077000
cgO 	O 	0.027220	0.234450	0.635960	-0.184000
cgH 	H 	0.485620	0.212440	0.616360	0.053000
cgH 	H 	0.419260	0.189030	0.722250	0.048000
cgH 	H 	0.382340	0.168930	0.717610	0.032000
cgH 	H 	0.380050	0.216700	0.418730	0.033000
cgH 	H 	0.417250	0.237340	0.434810	0.056000
cgH 	H 	0.353970	0.149430	0.563620	0.052000
cgH 	H 	0.451290	0.205720	0.630880	0.022000
cgC 	C 	0.019760	0.214370	0.706460	-0.029000
cgH 	H 	0.032980	0.212220	0.735800	0.044000
cgH 	H 	0.009750	0.202410	0.610850	0.037000
cgH 	H 	0.011190	0.212490	0.830050	0.039000
cgC 	C 	0.913590	0.067840	0.085860	0.116000
cgC 	C 	0.900490	0.076160	0.081070	-0.081000
cgC 	C 	0.908270	0.097390	0.078860	-0.017000
cgC 	C 	0.893400	0.104820	0.075110	0.039000
cgN 	N 	0.899220	0.123880	0.042420	-0.113000
cgC 	C 	0.886300	0.132840	0.037130	0.086000
cgC 	C 	0.866750	0.123480	0.114920	-0.073000
cgC 	C 	0.855100	0.133200	0.111610	-0.018000
cgC 	C 	0.862550	0.152380	0.028750	-0.013000
cgC 	C 	0.882140	0.161570	-0.049170	-0.022000
cgC 	C 	0.893920	0.152010	-0.042520	-0.068000
cgC 	C 	0.850090	0.162800	0.025770	0.040000
cgC 	C 	0.828560	0.151300	0.025450	-0.076000
cgO 	O 	0.906070	0.046550	0.098220	-0.184000
cgH 	H 	0.884060	0.066150	0.078630	0.053000
cgH 	H 	0.860650	0.109090	0.184520	0.050000
cgH 	H 	0.840550	0.125910	0.179870	0.032000
cgH 	H 	0.888320	0.175970	-0.119010	0.034000
cgH 	H 	0.908960	0.159420	-0.102920	0.056000
cgH 	H 	0.821050	0.134780	0.025890	0.052000
cgH 	H 	0.877340	0.093760	0.093140	0.022000
cgC 	C 	0.885990	0.033940	0.168730	-0.030000
cgH 	H 	0.883840	0.018560	0.198070	0.044000
cgH 	H 	0.874030	0.031980	0.073120	0.038000
cgH 	H 	0.884110	0.040620	0.292310	0.040000
cgC 	C 	0.943110	0.352780	0.085860	0.116000
cgC 	C 	0.934790	0.331370	0.081070	-0.081000
cgC 	C 	0.913560	0.317920	0.078860	-0.017000
cgC 	C 	0.906130	0.295610	0.075110	0.039000
cgN 	N 	0.887070	0.282380	0.042420	-0.113000
cgC 	C 	0.878110	0.260500	0.037130	0.087000
cgC 	C 	0.887470	0.250300	0.114920	-0.073000
cgC 	C 	0.877750	0.228930	0.111610	-0.017000
cgC 	C 	0.858570	0.217200	0.028750	-0.016000
cgC 	C 	0.849380	0.227600	-0.049170	-0.017000
cgC 	C 	0.858940	0.248940	-0.042520	-0.070000
cgC 	C 	0.848150	0.194320	0.025770	0.040000
cgC 	C 	0.859650	0.184300	0.025450	-0.077000
cgO 	O 	0.964400	0.366550	0.098220	-0.184000
cgH 	H 	0.944800	0.324940	0.078630	0.053000
cgH 	H 	0.901860	0.258590	0.184520	0.050000
cgH 	H 	0.885040	0.221670	0.179870	0.032000
cgH 	H 	0.834980	0.219380	-0.119010	0.030000
cgH 	H 	0.851530	0.256570	-0.102920	0.057000
cgH 	H 	0.876170	0.193300	0.025890	0.053000
cgH 	H 	0.917190	0.290620	0.093140	0.022000
cgC 	C 	0.977010	0.359090	0.168730	-0.029000
cgH 	H 	0.992390	0.372310	0.198070	0.044000
cgH 	H 	0.978970	0.349080	0.073120	0.037000
cgH 	H 	0.970330	0.350520	0.292310	0.040000
cgC 	C 	0.658170	0.097360	0.085860	0.116000
cgC 	C 	0.679580	0.110460	0.081070	-0.081000
cgC 	C 	0.693030	0.102680	0.078860	-0.017000
cgC 	C 	0.715340	0.117550	0.075110	0.039000
cgN 	N 	0.728570	0.111730	0.042420	-0.113000
cgC 	C 	0.750450	0.124650	0.037130	0.087000
cgC 	C 	0.760650	0.144200	0.114920	-0.073000
cgC 	C 	0.782020	0.155850	0.111610	-0.019000
cgC 	C 	0.793750	0.148400	0.028750	-0.014000
cgC 	C 	0.783350	0.128810	-0.049170	-0.018000
cgC 	C 	0.762010	0.117030	-0.042520	-0.070000
cgC 	C 	0.816630	0.160860	0.025770	0.041000
cgC 	C 	0.826650	0.182390	0.025450	-0.077000
cgO 	O 	0.644400	0.104880	0.098220	-0.184000
cgH 	H 	0.686010	0.126890	0.078630	0.053000
cgH 	H 	0.752360	0.150300	0.184520	0.050000
cgH 	H 	0.789280	0.170400	0.179870	0.034000
cgH 	H 	0.791570	0.122630	-0.119010	0.032000
cgH 	H 	0.754380	0.101990	-0.102920	0.057000
cgH 	H 	0.817650	0.189900	0.025890	0.052000
cgH 	H 	0.720330	0.133610	0.093140	0.022000
cgC 	C 	0.651860	0.124960	0.168730	-0.030000
cgH 	H 	0.638640	0.127110	0.198070	0.044000
cgH 	H 	0.661870	0.136920	0.073120	0.037000
cgH 	H 	0.660430	0.126840	0.292310	0.040000
cgC 	C 	0.929660	0.110820	0.085860	0.116000
cgC 	C 	0.942750	0.102500	0.081070	-0.081000
cgC 	C 	0.934970	0.081270	0.078860	-0.017000
cgC 	C 	0.949840	0.073830	0.075110	0.039000
cgN 	N 	0.944020	0.054780	0.042420	-0.113000
cgC 	C 	0.956940	0.045820	0.037130	0.086000
cgC 	C 	0.976500	0.055170	0.114920	-0.073000
cgC 	C 	0.988150	0.045450	0.111610	-0.017000
cgC 	C 	0.980700	0.026280	0.028750	-0.015000
cgC 	C 	0.961110	0.017080	-0.049170	-0.018000
cgC 	C 	0.949320	0.026640	-0.042520	-0.070000
cgC 	C 	0.993160	0.015860	0.025770	0.038000
cgC 	C 	0.514680	0.027360	0.025450	-0.078000
cgO 	O 	0.937180	0.132100	0.098220	-0.184000
cgH 	H 	0.959190	0.112510	0.078630	0.052000
cgH 	H 	0.982600	0.069560	0.184520	0.049000
cgH 	H 	0.502700	0.052740	0.179870	0.033000
cgH 	H 	0.954930	0.002680	-0.119010	0.034000
cgH 	H 	0.934290	0.019240	-0.102920	0.058000
cgH 	H 	0.522200	0.043870	0.025890	0.049000
cgH 	H 	0.965900	0.084900	0.093140	0.020000
cgC 	C 	0.957250	0.144720	0.168730	-0.030000
cgH 	H 	0.959400	0.160090	0.198070	0.044000
cgH 	H 	0.969210	0.146670	0.073120	0.037000
cgH 	H 	0.959140	0.138040	0.292310	0.039000
cgC 	C 	0.900130	0.325870	0.085860	0.116000
cgC 	C 	0.908450	0.347290	0.081070	-0.081000
cgC 	C 	0.929680	0.360740	0.078860	-0.017000
cgC 	C 	0.937120	0.383040	0.075110	0.039000
cgN 	N 	0.956170	0.396280	0.042420	-0.113000
cgC 	C 	0.965130	0.418160	0.037130	0.086000
cgC 	C 	0.955780	0.428360	0.114920	-0.073000
cgC 	C 	0.965500	0.449730	0.111610	-0.017000
cgC 	C 	0.984670	0.461450	0.028750	-0.015000
cgC 	C 	0.993870	0.451060	-0.049170	-0.018000
cgC 	C 	0.984310	0.429710	-0.042520	-0.070000
cgC 	C 	0.995090	0.484330	0.025770	0.038000
cgC 	C 	0.983590	0.494360	0.025450	-0.078000
cgO 	O 	0.878850	0.312110	0.098220	-0.184000
cgH 	H 	0.898440	0.353710	0.078630	0.052000
cgH 	H 	0.941390	0.420070	0.184520	0.049000
cgH 	H 	0.958210	0.456990	0.179870	0.033000
cgH 	H 	0.508270	0.459280	-0.119010	0.034000
cgH 	H 	0.991710	0.422080	-0.102920	0.058000
cgH 	H 	0.967080	0.485360	0.025890	0.049000
cgH 	H 	0.926050	0.388040	0.093140	0.020000
cgC 	C 	0.866230	0.319570	0.168730	-0.030000
cgH 	H 	0.850860	0.306340	0.198070	0.044000
cgH 	H 	0.864280	0.329570	0.073120	0.037000
cgH 	H 	0.872910	0.328130	0.292310	0.039000
cgC 	C 	0.685080	0.081290	0.085860	0.116000
cgC 	C 	0.663660	0.068200	0.081070	-0.081000
cgC 	C 	0.650210	0.075980	0.078860	-0.017000
cgC 	C 	0.627910	0.061110	0.075110	0.039000
cgN 	N 	0.614670	0.066930	0.042420	-0.113000
cgC 	C 	0.592790	0.054010	0.037130	0.086000
cgC 	C 	0.582590	0.034450	0.114920	-0.073000
cgC 	C 	0.561220	0.022800	0.111610	-0.017000
cgC 	C 	0.549500	0.030250	0.028750	-0.015000
cgC 	C 	0.559890	0.049840	-0.049170	-0.018000
cgC 	C 	0.581240	0.061630	-0.042520	-0.070000
cgC 	C 	0.526620	0.017790	0.025770	0.038000
cgC 	C 	0.516590	0.496270	0.025450	-0.078000
cgO 	O 	0.698840	0.073770	0.098220	-0.184000
cgH 	H 	0.657240	0.051760	0.078630	0.052000
cgH 	H 	0.590880	0.028350	0.184520	0.049000
cgH 	H 	0.553960	0.008250	0.179870	0.033000
cgH 	H 	0.551670	0.056020	-0.119010	0.034000
cgH 	H 	0.588870	0.076660	-0.102920	0.058000
cgH 	H 	0.525590	0.488750	0.025890	0.049000
cgH 	H 	0.622910	0.045050	0.093140	0.020000
cgC 	C 	0.691380	0.053700	0.168730	-0.029000
cgH 	H 	0.704610	0.051550	0.198070	0.044000
cgH 	H 	0.681380	0.041740	0.073120	0.037000
cgH 	H 	0.682820	0.051810	0.292310	0.039000
cgC 	C 	0.741970	0.228510	0.623600	0.116000
cgC 	C 	0.728870	0.236830	0.618800	-0.081000
cgC 	C 	0.736650	0.258060	0.616600	-0.018000
cgC 	C 	0.721780	0.265500	0.612840	0.039000
cgN 	N 	0.727600	0.284550	0.580150	-0.113000
cgC 	C 	0.714680	0.293510	0.574860	0.086000
cgC 	C 	0.695130	0.284160	0.652660	-0.073000
cgC 	C 	0.683480	0.293880	0.649350	-0.017000
cgC 	C 	0.690930	0.313050	0.566490	-0.015000
cgC 	C 	0.710520	0.322250	0.488570	-0.018000
cgC 	C 	0.722300	0.312690	0.495210	-0.070000
cgC 	C 	0.678470	0.323470	0.563510	0.038000
cgC 	C 	0.656940	0.311970	0.563180	-0.078000
cgO 	O 	0.734450	0.207230	0.635960	-0.185000
cgH 	H 	0.712440	0.226820	0.616360	0.052000
cgH 	H 	0.689030	0.269770	0.722250	0.049000
cgH 	H 	0.668930	0.286590	0.717610	0.032000
cgH 	H 	0.716700	0.336650	0.418730	0.034000
cgH 	H 	0.737340	0.320090	0.434810	0.058000
cgH 	H 	0.649430	0.295460	0.563620	0.049000
cgH 	H 	0.705720	0.254430	0.630880	0.020000
cgC 	C 	0.714370	0.194610	0.706460	-0.029000
cgH 	H 	0.712220	0.179240	0.735800	0.043000
cgH 	H 	0.702410	0.192660	0.610850	0.037000
cgH 	H 	0.712490	0.201290	0.830050	0.039000
cgC 	C 	0.771490	0.013450	0.623600	0.116000
cgC 	C 	0.763170	0.492040	0.618800	-0.081000
cgC 	C 	0.741940	0.478590	0.616600	-0.017000
cgC 	C 	0.734500	0.456290	0.612840	0.039000
cgN 	N 	0.715450	0.443050	0.580150	-0.113000
cgC 	C 	0.706490	0.421170	0.574860	0.086000
cgC 	C 	0.715840	0.410970	0.652660	-0.073000
cgC 	C 	0.706120	0.389600	0.649350	-0.017000
cgC 	C 	0.686950	0.377880	0.566490	-0.015000
cgC 	C 	0.677750	0.388270	0.488570	-0.018000
cgC 	C 	0.687310	0.409620	0.495210	-0.070000
cgC 	C 	0.676530	0.354990	0.563510	0.038000
cgC 	C 	0.688030	0.344970	0.563180	-0.078000
cgO 	O 	0.792770	0.027220	0.635960	-0.185000
cgH 	H 	0.773180	0.485620	0.616360	0.052000
cgH 	H 	0.730230	0.419260	0.722250	0.049000
cgH 	H 	0.713410	0.382340	0.717610	0.032000
cgH 	H 	0.663350	0.380050	0.418730	0.034000
cgH 	H 	0.679910	0.417250	0.434810	0.058000
cgH 	H 	0.704540	0.353970	0.563620	0.049000
cgH 	H 	0.745570	0.451290	0.630880	0.020000
cgC 	C 	0.805390	0.019760	0.706460	-0.029000
cgH 	H 	0.820760	0.032980	0.735800	0.043000
cgH 	H 	0.807340	0.009750	0.610850	0.037000
cgH 	H 	0.798710	0.011200	0.830050	0.039000
cgC 	C 	0.986550	0.258030	0.623600	0.116000
cgC 	C 	0.507960	0.271130	0.618800	-0.081000
cgC 	C 	0.521410	0.263350	0.616600	-0.018000
cgC 	C 	0.543720	0.278220	0.612840	0.039000
cgN 	N 	0.556950	0.272400	0.580150	-0.113000
cgC 	C 	0.578830	0.285320	0.574860	0.086000
cgC 	C 	0.589030	0.304880	0.652660	-0.073000
cgC 	C 	0.610400	0.316520	0.649350	-0.017000
cgC 	C 	0.622130	0.309070	0.566490	-0.015000
cgC 	C 	0.611730	0.289480	0.488570	-0.018000
cgC 	C 	0.590390	0.277700	0.495210	-0.069000
cgC 	C 	0.645010	0.321540	0.563510	0.038000
cgC 	C 	0.655030	0.343060	0.563180	-0.078000
cgO 	O 	0.972780	0.265550	0.635960	-0.184000
cgH 	H 	0.514390	0.287560	0.616360	0.052000
cgH 	H 	0.580740	0.310980	0.722250	0.049000
cgH 	H 	0.617660	0.331080	0.717610	0.032000
cgH 	H 	0.619950	0.283300	0.418730	0.034000
cgH 	H 	0.582760	0.262660	0.434810	0.058000
cgH 	H 	0.646030	0.350580	0.563620	0.049000
cgH 	H 	0.548710	0.294280	0.630880	0.020000
cgC 	C 	0.980240	0.285630	0.706460	-0.029000
cgH 	H 	0.967020	0.287780	0.735800	0.043000
cgH 	H 	0.990250	0.297590	0.610850	0.037000
cgH 	H 	0.988810	0.287510	0.830050	0.039000
cgC 	C 	0.758030	0.271490	0.623600	0.116000
cgC 	C 	0.771130	0.263170	0.618800	-0.081000
cgC 	C 	0.763350	0.241940	0.616600	-0.017000
cgC 	C 	0.778220	0.234500	0.612840	0.039000
cgN 	N 	0.772400	0.215450	0.580150	-0.113000
cgC 	C 	0.785320	0.206490	0.574860	0.086000
cgC 	C 	0.804870	0.215840	0.652660	-0.075000
cgC 	C 	0.816520	0.206120	0.649350	-0.017000
cgC 	C 	0.809070	0.186950	0.566490	-0.015000
cgC 	C 	0.789480	0.177750	0.488570	-0.020000
cgC 	C 	0.777700	0.187310	0.495210	-0.070000
cgC 	C 	0.821540	0.176530	0.563510	0.040000
cgC 	C 	0.843060	0.188030	0.563180	-0.077000
cgO 	O 	0.765550	0.292770	0.635960	-0.184000
cgH 	H 	0.787560	0.273180	0.616360	0.053000
cgH 	H 	0.810980	0.230230	0.722250	0.049000
cgH 	H 	0.831080	0.213410	0.717610	0.028000
cgH 	H 	0.783300	0.163350	0.418730	0.034000
cgH 	H 	0.762660	0.179910	0.434810	0.056000
cgH 	H 	0.850570	0.204540	0.563620	0.052000
cgH 	H 	0.794280	0.245570	0.630880	0.021000
cgC 	C 	0.785630	0.305390	0.706460	-0.029000
cgH 	H 	0.787780	0.320760	0.735800	0.044000
cgH 	H 	0.797590	0.307340	0.610850	0.037000
cgH 	H 	0.787510	0.298710	0.830050	0.039000
cgC 	C 	0.728510	0.486550	0.623600	0.116000
cgC 	C 	0.736830	0.007960	0.618800	-0.081000
cgC 	C 	0.758060	0.021410	0.616600	-0.017000
cgC 	C 	0.765500	0.043720	0.612840	0.039000
cgN 	N 	0.784550	0.056950	0.580150	-0.113000
cgC 	C 	0.793510	0.078830	0.574860	0.087000
cgC 	C 	0.784160	0.089030	0.652660	-0.074000
cgC 	C 	0.793880	0.110400	0.649350	-0.017000
cgC 	C 	0.813050	0.122130	0.566490	-0.016000
cgC 	C 	0.822250	0.111730	0.488570	-0.018000
cgC 	C 	0.812690	0.090390	0.495210	-0.070000
cgC 	C 	0.823470	0.145010	0.563510	0.040000
cgC 	C 	0.811970	0.155030	0.563180	-0.078000
cgO 	O 	0.707230	0.472780	0.635960	-0.184000
cgH 	H 	0.726820	0.014380	0.616360	0.052000
cgH 	H 	0.769770	0.080740	0.722250	0.050000
cgH 	H 	0.786590	0.117660	0.717610	0.028000
cgH 	H 	0.836650	0.119950	0.418730	0.031000
cgH 	H 	0.820090	0.082760	0.434810	0.057000
cgH 	H 	0.795460	0.146030	0.563620	0.052000
cgH 	H 	0.754430	0.048710	0.630880	0.021000
cgC 	C 	0.694610	0.480240	0.706460	-0.029000
cgH 	H 	0.679240	0.467020	0.735800	0.044000
cgH 	H 	0.692660	0.490250	0.610850	0.037000
cgH 	H 	0.701290	0.488810	0.830050	0.039000
cgC 	C 	0.513460	0.241970	0.623600	0.116000
cgC 	C 	0.992040	0.228870	0.618800	-0.081000
cgC 	C 	0.978590	0.236650	0.616600	-0.017000
cgC 	C 	0.956290	0.221780	0.612840	0.039000
cgN 	N 	0.943050	0.227600	0.580150	-0.113000
cgC 	C 	0.921170	0.214680	0.574860	0.086000
cgC 	C 	0.910970	0.195130	0.652660	-0.073000
cgC 	C 	0.889600	0.183480	0.649350	-0.022000
cgC 	C 	0.877870	0.190930	0.566490	-0.013000
cgC 	C 	0.888270	0.210520	0.488570	-0.019000
cgC 	C 	0.909620	0.222300	0.495210	-0.070000
cgC 	C 	0.854990	0.178470	0.563510	0.040000
cgC 	C 	0.844970	0.156940	0.563180	-0.077000
cgO 	O 	0.527220	0.234450	0.635960	-0.184000
cgH 	H 	0.985620	0.212440	0.616360	0.053000
cgH 	H 	0.919260	0.189030	0.722250	0.048000
cgH 	H 	0.882340	0.168930	0.717610	0.032000
cgH 	H 	0.880050	0.216700	0.418730	0.033000
cgH 	H 	0.917250	0.237340	0.434810	0.056000
cgH 	H 	0.853970	0.149430	0.563620	0.052000
cgH 	H 	0.951290	0.205720	0.630880	0.022000
cgC 	C 	0.519760	0.214370	0.706460	-0.029000
cgH 	H 	0.532990	0.212220	0.735800	0.044000
cgH 	H 	0.509750	0.202410	0.610850	0.037000
cgH 	H 	0.511190	0.212490	0.830050	0.039000
cgC 	C 	0.413590	0.567840	0.085860	0.116000
cgC 	C 	0.400490	0.576160	0.081070	-0.081000
cgC 	C 	0.408270	0.597390	0.078860	-0.017000
cgC 	C 	0.393400	0.604820	0.075110	0.039000
cgN 	N 	0.399220	0.623880	0.042420	-0.113000
cgC 	C 	0.386300	0.632840	0.037130	0.086000
cgC 	C 	0.366750	0.623480	0.114920	-0.073000
cgC 	C 	0.355100	0.633200	0.111610	-0.018000
cgC 	C 	0.362550	0.652380	0.028750	-0.013000
cgC 	C 	0.382140	0.661570	-0.049170	-0.022000
cgC 	C 	0.393920	0.652010	-0.042520	-0.068000
cgC 	C 	0.350090	0.662800	0.025770	0.040000
cgC 	C 	0.328560	0.651300	0.025450	-0.076000
cgO 	O 	0.406070	0.546550	0.098220	-0.184000
cgH 	H 	0.384060	0.566150	0.078630	0.053000
cgH 	H 	0.360650	0.609090	0.184520	0.050000
cgH 	H 	0.340550	0.625910	0.179870	0.032000
cgH 	H 	0.388320	0.675970	-0.119010	0.034000
cgH 	H 	0.408960	0.659420	-0.102920	0.056000
cgH 	H 	0.321050	0.634780	0.025890	0.052000
cgH 	H 	0.377340	0.593760	0.093140	0.022000
cgC 	C 	0.385990	0.533940	0.168730	-0.030000
cgH 	H 	0.383840	0.518560	0.198070	0.044000
cgH 	H 	0.374030	0.531980	0.073120	0.038000
cgH 	H 	0.384110	0.540620	0.292310	0.040000
cgC 	C 	0.443110	0.852780	0.085860	0.116000
cgC 	C 	0.434790	0.831370	0.081070	-0.081000
cgC 	C 	0.413560	0.817920	0.078860	-0.017000
cgC 	C 	0.406130	0.795610	0.075110	0.039000
cgN 	N 	0.387070	0.782380	0.042420	-0.113000
cgC 	C 	0.378110	0.760500	0.037130	0.087000
cgC 	C 	0.387470	0.750300	0.114920	-0.073000
cgC 	C 	0.377750	0.728930	0.111610	-0.017000
cgC 	C 	0.358570	0.717200	0.028750	-0.016000
cgC 	C 	0.349380	0.727600	-0.049170	-0.017000
cgC 	C 	0.358940	0.748940	-0.042520	-0.070000
cgC 	C 	0.348150	0.694320	0.025770	0.040000
cgC 	C 	0.359650	0.684300	0.025450	-0.077000
cgO 	O 	0.464400	0.866550	0.098220	-0.184000
cgH 	H 	0.444800	0.824940	0.078630	0.053000
cgH 	H 	0.401860	0.758590	0.184520	0.050000
cgH 	H 	0.385040	0.721670	0.179870	0.032000
cgH 	H 	0.334980	0.719380	-0.119010	0.030000
cgH 	H 	0.351530	0.756570	-0.102920	0.057000
cgH 	H 	0.376170	0.693300	0.025890	0.053000
cgH 	H 	0.417190	0.790620	0.093140	0.022000
cgC 	C 	0.477010	0.859090	0.168730	-0.029000
cgH 	H 	0.492390	0.872310	0.198070	0.044000
cgH 	H 	0.478970	0.849080	0.073120	0.037000
cgH 	H 	0.470330	0.850520	0.292310	0.040000
cgC 	C 	0.158170	0.597360	0.085860	0.116000
cgC 	C 	0.179580	0.610460	0.081070	-0.081000
cgC 	C 	0.193030	0.602680	0.078860	-0.017000
cgC 	C 	0.215340	0.617550	0.075110	0.039000
cgN 	N 	0.228570	0.611730	0.042420	-0.113000
cgC 	C 	0.250450	0.624650	0.037130	0.087000
cgC 	C 	0.260650	0.644200	0.114920	-0.073000
cgC 	C 	0.282020	0.655850	0.111610	-0.019000
cgC 	C 	0.293750	0.648400	0.028750	-0.014000
cgC 	C 	0.283350	0.628810	-0.049170	-0.018000
cgC 	C 	0.262010	0.617030	-0.042520	-0.070000
cgC 	C 	0.316630	0.660860	0.025770	0.041000
cgC 	C 	0.326650	0.682390	0.025450	-0.077000
cgO 	O 	0.144400	0.604880	0.098220	-0.184000
cgH 	H 	0.186010	0.626890	0.078630	0.053000
cgH 	H 	0.252360	0.650300	0.184520	0.050000
cgH 	H 	0.289280	0.670400	0.179870	0.034000
cgH 	H 	0.291570	0.622630	-0.119010	0.032000
cgH 	H 	0.254380	0.601990	-0.102920	0.057000
cgH 	H 	0.317650	0.689900	0.025890	0.052000
cgH 	H 	0.220330	0.633610	0.093140	0.022000
cgC 	C 	0.151860	0.624960	0.168730	-0.030000
cgH 	H 	0.138640	0.627110	0.198070	0.044000
cgH 	H 	0.161870	0.636920	0.073120	0.037000
cgH 	H 	0.160430	0.626840	0.292310	0.040000
cgC 	C 	0.429660	0.610820	0.085860	0.116000
cgC 	C 	0.442750	0.602500	0.081070	-0.081000
cgC 	C 	0.434970	0.581270	0.078860	-0.017000
cgC 	C 	0.449840	0.573830	0.075110	0.039000
cgN 	N 	0.444020	0.554780	0.042420	-0.113000
cgC 	C 	0.456940	0.545820	0.037130	0.086000
cgC 	C 	0.476500	0.555170	0.114920	-0.073000
cgC 	C 	0.488150	0.545450	0.111610	-0.017000
cgC 	C 	0.480700	0.526280	0.028750	-0.015000
cgC 	C 	0.461110	0.517080	-0.049170	-0.018000
cgC 	C 	0.449320	0.526640	-0.042520	-0.070000
cgC 	C 	0.493160	0.515860	0.025770	0.038000
cgC 	C 	0.014680	0.527360	0.025450	-0.078000
cgO 	O 	0.437180	0.632100	0.098220	-0.184000
cgH 	H 	0.459190	0.612510	0.078630	0.052000
cgH 	H 	0.482600	0.569560	0.184520	0.049000
cgH 	H 	0.002700	0.552740	0.179870	0.033000
cgH 	H 	0.454930	0.502680	-0.119010	0.034000
cgH 	H 	0.434290	0.519240	-0.102920	0.058000
cgH 	H 	0.022200	0.543870	0.025890	0.049000
cgH 	H 	0.465900	0.584900	0.093140	0.020000
cgC 	C 	0.457250	0.644720	0.168730	-0.030000
cgH 	H 	0.459400	0.660090	0.198070	0.044000
cgH 	H 	0.469210	0.646670	0.073120	0.037000
cgH 	H 	0.459140	0.638040	0.292310	0.039000
cgC 	C 	0.400130	0.825870	0.085860	0.116000
cgC 	C 	0.408450	0.847290	0.081070	-0.081000
cgC 	C 	0.429680	0.860740	0.078860	-0.017000
cgC 	C 	0.437120	0.883040	0.075110	0.039000
cgN 	N 	0.456170	0.896280	0.042420	-0.113000
cgC 	C 	0.465130	0.918160	0.037130	0.086000
cgC 	C 	0.455780	0.928360	0.114920	-0.073000
cgC 	C 	0.465500	0.949730	0.111610	-0.017000
cgC 	C 	0.484670	0.961450	0.028750	-0.015000
cgC 	C 	0.493870	0.951060	-0.049170	-0.018000
cgC 	C 	0.484310	0.929710	-0.042520	-0.070000
cgC 	C 	0.495090	0.984330	0.025770	0.038000
cgC 	C 	0.483590	0.994360	0.025450	-0.078000
cgO 	O 	0.378850	0.812110	0.098220	-0.184000
cgH 	H 	0.398440	0.853710	0.078630	0.052000
cgH 	H 	0.441390	0.920070	0.184520	0.049000
cgH 	H 	0.458210	0.956990	0.179870	0.033000
cgH 	H 	0.008270	0.959280	-0.119010	0.034000
cgH 	H 	0.491710	0.922080	-0.102920	0.058000
cgH 	H 	0.467080	0.985360	0.025890	0.049000
cgH 	H 	0.426050	0.888040	0.093140	0.020000
cgC 	C 	0.366230	0.819570	0.168730	-0.030000
cgH 	H 	0.350860	0.806340	0.198070	0.044000
cgH 	H 	0.364280	0.829570	0.073120	0.037000
cgH 	H 	0.372910	0.828130	0.292310	0.039000
cgC 	C 	0.185080	0.581290	0.085860	0.116000
cgC 	C 	0.163660	0.568200	0.081070	-0.081000
cgC 	C 	0.150210	0.575980	0.078860	-0.017000
cgC 	C 	0.127910	0.561110	0.075110	0.039000
cgN 	N 	0.114670	0.566930	0.042420	-0.113000
cgC 	C 	0.092790	0.554010	0.037130	0.086000
cgC 	C 	0.082590	0.534450	0.114920	-0.073000
cgC 	C 	0.061220	0.522800	0.111610	-0.017000
cgC 	C 	0.049500	0.530250	0.028750	-0.015000
cgC 	C 	0.059890	0.549840	-0.049170	-0.018000
cgC 	C 	0.081240	0.561630	-0.042520	-0.070000
cgC 	C 	0.026620	0.517790	0.025770	0.038000
cgC 	C 	0.016590	0.996270	0.025450	-0.078000
cgO 	O 	0.198840	0.573770	0.098220	-0.184000
cgH 	H 	0.157240	0.551760	0.078630	0.052000
cgH 	H 	0.090880	0.528350	0.184520	0.049000
cgH 	H 	0.053960	0.508250	0.179870	0.033000
cgH 	H 	0.051670	0.556020	-0.119010	0.034000
cgH 	H 	0.088870	0.576660	-0.102920	0.058000
cgH 	H 	0.025590	0.988750	0.025890	0.049000
cgH 	H 	0.122910	0.545050	0.093140	0.020000
cgC 	C 	0.191380	0.553700	0.168730	-0.029000
cgH 	H 	0.204610	0.551550	0.198070	0.044000
cgH 	H 	0.181380	0.541740	0.073120	0.037000
cgH 	H 	0.182820	0.551810	0.292310	0.039000
cgC 	C 	0.241970	0.728510	0.623600	0.116000
cgC 	C 	0.228870	0.736830	0.618800	-0.081000
cgC 	C 	0.236650	0.758060	0.616600	-0.018000
cgC 	C 	0.221780	0.765500	0.612840	0.039000
cgN 	N 	0.227600	0.784550	0.580150	-0.113000
cgC 	C 	0.214680	0.793510	0.574860	0.086000
cgC 	C 	0.195130	0.784160	0.652660	-0.073000
cgC 	C 	0.183480	0.793880	0.649350	-0.018000
cgC 	C 	0.190930	0.813050	0.566490	-0.015000
cgC 	C 	0.210520	0.822250	0.488570	-0.018000
cgC 	C 	0.222300	0.812690	0.495210	-0.070000
cgC 	C 	0.178470	0.823470	0.563510	0.038000
cgC 	C 	0.156940	0.811970	0.563180	-0.078000
cgO 	O 	0.234450	0.707230	0.635960	-0.185000
cgH 	H 	0.212440	0.726820	0.616360	0.052000
cgH 	H 	0.189030	0.769770	0.722250	0.049000
cgH 	H 	0.168930	0.786590	0.717610	0.032000
cgH 	H 	0.216700	0.836650	0.418730	0.034000
cgH 	H 	0.237340	0.820090	0.434810	0.058000
cgH 	H 	0.149430	0.795460	0.563620	0.049000
cgH 	H 	0.205720	0.754430	0.630880	0.020000
cgC 	C 	0.214370	0.694610	0.706460	-0.029000
cgH 	H 	0.212220	0.679240	0.735800	0.043000
cgH 	H 	0.202410	0.692660	0.610850	0.037000
cgH 	H 	0.212490	0.701290	0.830050	0.039000
cgC 	C 	0.271490	0.513450	0.623600	0.116000
cgC 	C 	0.263170	0.992040	0.618800	-0.081000
cgC 	C 	0.241940	0.978590	0.616600	-0.017000
cgC 	C 	0.234500	0.956290	0.612840	0.039000
cgN 	N 	0.215450	0.943050	0.580150	-0.113000
cgC 	C 	0.206490	0.921170	0.574860	0.086000
cgC 	C 	0.215840	0.910970	0.652660	-0.073000
cgC 	C 	0.206120	0.889600	0.649350	-0.017000
cgC 	C 	0.186950	0.877880	0.566490	-0.015000
cgC 	C 	0.177750	0.888270	0.488570	-0.018000
cgC 	C 	0.187310	0.909620	0.495210	-0.070000
cgC 	C 	0.176530	0.855000	0.563510	0.038000
cgC 	C 	0.188030	0.844970	0.563180	-0.078000
cgO 	O 	0.292770	0.527220	0.635960	-0.185000
cgH 	H 	0.273180	0.985620	0.616360	0.052000
cgH 	H 	0.230230	0.919260	0.722250	0.049000
cgH 	H 	0.213410	0.882340	0.717610	0.032000
cgH 	H 	0.163350	0.880050	0.418730	0.034000
cgH 	H 	0.179910	0.917250	0.434810	0.058000
cgH 	H 	0.204540	0.853970	0.563620	0.049000
cgH 	H 	0.245570	0.951290	0.630880	0.020000
cgC 	C 	0.305390	0.519760	0.706460	-0.029000
cgH 	H 	0.320760	0.532990	0.735800	0.043000
cgH 	H 	0.307340	0.509760	0.610850	0.037000
cgH 	H 	0.298710	0.511200	0.830050	0.039000
cgC 	C 	0.486550	0.758030	0.623600	0.116000
cgC 	C 	0.007960	0.771130	0.618800	-0.081000
cgC 	C 	0.021410	0.763350	0.616600	-0.018000
cgC 	C 	0.043720	0.778220	0.612840	0.039000
cgN 	N 	0.056950	0.772400	0.580150	-0.113000
cgC 	C 	0.078830	0.785320	0.574860	0.086000
cgC 	C 	0.089030	0.804880	0.652660	-0.073000
cgC 	C 	0.110400	0.816530	0.649350	-0.018000
cgC 	C 	0.122130	0.809070	0.566490	-0.015000
cgC 	C 	0.111730	0.789480	0.488570	-0.018000
cgC 	C 	0.090390	0.777700	0.495210	-0.069000
cgC 	C 	0.145010	0.821540	0.563510	0.038000
cgC 	C 	0.155030	0.843060	0.563180	-0.078000
cgO 	O 	0.472780	0.765550	0.635960	-0.184000
cgH 	H 	0.014390	0.787560	0.616360	0.052000
cgH 	H 	0.080740	0.810980	0.722250	0.049000
cgH 	H 	0.117660	0.831080	0.717610	0.032000
cgH 	H 	0.119950	0.783300	0.418730	0.034000
cgH 	H 	0.082760	0.762660	0.434810	0.058000
cgH 	H 	0.146030	0.850580	0.563620	0.049000
cgH 	H 	0.048710	0.794280	0.630880	0.020000
cgC 	C 	0.480240	0.785630	0.706460	-0.029000
cgH 	H 	0.467020	0.787780	0.735800	0.043000
cgH 	H 	0.490250	0.797590	0.610850	0.037000
cgH 	H 	0.488810	0.787510	0.830050	0.039000
cgC 	C 	0.258030	0.771490	0.623600	0.116000
cgC 	C 	0.271130	0.763170	0.618800	-0.081000
cgC 	C 	0.263350	0.741940	0.616600	-0.017000
cgC 	C 	0.278220	0.734500	0.612840	0.039000
cgN 	N 	0.272400	0.715450	0.580150	-0.113000
cgC 	C 	0.285320	0.706490	0.574860	0.086000
cgC 	C 	0.304870	0.715840	0.652660	-0.075000
cgC 	C 	0.316520	0.706120	0.649350	-0.017000
cgC 	C 	0.309070	0.686950	0.566490	-0.015000
cgC 	C 	0.289480	0.677750	0.488570	-0.020000
cgC 	C 	0.277700	0.687310	0.495210	-0.070000
cgC 	C 	0.321530	0.676530	0.563510	0.040000
cgC 	C 	0.343060	0.688030	0.563180	-0.077000
cgO 	O 	0.265550	0.792780	0.635960	-0.184000
cgH 	H 	0.287560	0.773180	0.616360	0.053000
cgH 	H 	0.310970	0.730230	0.722250	0.049000
cgH 	H 	0.331080	0.713410	0.717610	0.028000
cgH 	H 	0.283300	0.663350	0.418730	0.034000
cgH 	H 	0.262660	0.679910	0.434810	0.056000
cgH 	H 	0.350570	0.704540	0.563620	0.052000
cgH 	H 	0.294280	0.745570	0.630880	0.021000
cgC 	C 	0.285630	0.805390	0.706460	-0.030000
cgH 	H 	0.287780	0.820760	0.735800	0.044000
cgH 	H 	0.297590	0.807340	0.610850	0.037000
cgH 	H 	0.287510	0.798710	0.830050	0.039000
cgC 	C 	0.228510	0.986550	0.623600	0.116000
cgC 	C 	0.236830	0.507960	0.618800	-0.081000
cgC 	C 	0.258060	0.521410	0.616600	-0.017000
cgC 	C 	0.265500	0.543720	0.612840	0.039000
cgN 	N 	0.284550	0.556950	0.580150	-0.113000
cgC 	C 	0.293510	0.578830	0.574860	0.087000
cgC 	C 	0.284160	0.589030	0.652660	-0.074000
cgC 	C 	0.293880	0.610400	0.649350	-0.017000
cgC 	C 	0.313050	0.622130	0.566490	-0.016000
cgC 	C 	0.322250	0.611730	0.488570	-0.018000
cgC 	C 	0.312690	0.590390	0.495210	-0.070000
cgC 	C 	0.323470	0.645010	0.563510	0.040000
cgC 	C 	0.311970	0.655030	0.563180	-0.078000
cgO 	O 	0.207230	0.972780	0.635960	-0.184000
cgH 	H 	0.226820	0.514390	0.616360	0.052000
cgH 	H 	0.269770	0.580740	0.722250	0.050000
cgH 	H 	0.286590	0.617660	0.717610	0.028000
cgH 	H 	0.336650	0.619950	0.418730	0.031000
cgH 	H 	0.320090	0.582760	0.434810	0.057000
cgH 	H 	0.295460	0.646030	0.563620	0.052000
cgH 	H 	0.254430	0.548710	0.630880	0.021000
cgC 	C 	0.194610	0.980240	0.706460	-0.029000
cgH 	H 	0.179240	0.967020	0.735800	0.044000
cgH 	H 	0.192660	0.990250	0.610850	0.037000
cgH 	H 	0.201290	0.988810	0.830050	0.039000
cgC 	C 	0.013450	0.741970	0.623600	0.116000
cgC 	C 	0.492040	0.728870	0.618800	-0.081000
cgC 	C 	0.478590	0.736650	0.616600	-0.017000
cgC 	C 	0.456280	0.721780	0.612840	0.039000
cgN 	N 	0.443050	0.727600	0.580150	-0.113000
cgC 	C 	0.421170	0.714680	0.574860	0.086000
cgC 	C 	0.410970	0.695130	0.652660	-0.073000
cgC 	C 	0.389600	0.683480	0.649350	-0.022000
cgC 	C 	0.377870	0.690930	0.566490	-0.013000
cgC 	C 	0.388270	0.710520	0.488570	-0.019000
cgC 	C 	0.409620	0.722300	0.495210	-0.070000
cgC 	C 	0.354990	0.678470	0.563510	0.040000
cgC 	C 	0.344970	0.656940	0.563180	-0.077000
cgO 	O 	0.027220	0.734450	0.635960	-0.184000
cgH 	H 	0.485620	0.712440	0.616360	0.053000
cgH 	H 	0.419260	0.689030	0.722250	0.048000
cgH 	H 	0.382340	0.668930	0.717610	0.032000
cgH 	H 	0.380050	0.716700	0.418730	0.033000
cgH 	H 	0.417250	0.737340	0.434810	0.056000
cgH 	H 	0.353970	0.649430	0.563620	0.052000
cgH 	H 	0.451290	0.705720	0.630880	0.022000
cgC 	C 	0.019760	0.714370	0.706460	-0.029000
cgH 	H 	0.032980	0.712220	0.735800	0.044000
cgH 	H 	0.009750	0.702410	0.610850	0.037000
cgH 	H 	0.011190	0.712490	0.830050	0.039000
cgC 	C 	0.913590	0.567840	0.085860	0.116000
cgC 	C 	0.900490	0.576160	0.081070	-0.081000
cgC 	C 	0.908270	0.597390	0.078860	-0.017000
cgC 	C 	0.893400	0.604820	0.075110	0.039000
cgN 	N 	0.899220	0.623880	0.042420	-0.113000
cgC 	C 	0.886300	0.632840	0.037130	0.086000
cgC 	C 	0.866750	0.623480	0.114920	-0.073000
cgC 	C 	0.855100	0.633200	0.111610	-0.018000
cgC 	C 	0.862550	0.652380	0.028750	-0.013000
cgC 	C 	0.882140	0.661570	-0.049170	-0.022000
cgC 	C 	0.893920	0.652010	-0.042520	-0.068000
cgC 	C 	0.850090	0.662800	0.025770	0.040000
cgC 	C 	0.828560	0.651300	0.025450	-0.076000
cgO 	O 	0.906070	0.546550	0.098220	-0.184000
cgH 	H 	0.884060	0.566150	0.078630	0.053000
cgH 	H 	0.860650	0.609090	0.184520	0.050000
cgH 	H 	0.840550	0.625910	0.179870	0.032000
cgH 	H 	0.888320	0.675970	-0.119010	0.034000
cgH 	H 	0.908960	0.659420	-0.102920	0.056000
cgH 	H 	0.821050	0.634780	0.025890	0.052000
cgH 	H 	0.877340	0.593760	0.093140	0.022000
cgC 	C 	0.885990	0.533940	0.168730	-0.030000
cgH 	H 	0.883840	0.518560	0.198070	0.044000
cgH 	H 	0.874030	0.531980	0.073120	0.038000
cgH 	H 	0.884110	0.540620	0.292310	0.040000
cgC 	C 	0.943110	0.852780	0.085860	0.116000
cgC 	C 	0.934790	0.831370	0.081070	-0.081000
cgC 	C 	0.913560	0.817920	0.078860	-0.017000
cgC 	C 	0.906130	0.795610	0.075110	0.039000
cgN 	N 	0.887070	0.782380	0.042420	-0.113000
cgC 	C 	0.878110	0.760500	0.037130	0.087000
cgC 	C 	0.887470	0.750300	0.114920	-0.073000
cgC 	C 	0.877750	0.728930	0.111610	-0.017000
cgC 	C 	0.858570	0.717200	0.028750	-0.016000
cgC 	C 	0.849380	0.727600	-0.049170	-0.017000
cgC 	C 	0.858940	0.748940	-0.042520	-0.070000
cgC 	C 	0.848150	0.694320	0.025770	0.040000
cgC 	C 	0.859650	0.684300	0.025450	-0.077000
cgO 	O 	0.964400	0.866550	0.098220	-0.184000
cgH 	H 	0.944800	0.824940	0.078630	0.053000
cgH 	H 	0.901860	0.758590	0.184520	0.050000
cgH 	H 	0.885040	0.721670	0.179870	0.032000
cgH 	H 	0.834980	0.719380	-0.119010	0.030000
cgH 	H 	0.851530	0.756570	-0.102920	0.057000
cgH 	H 	0.876170	0.693300	0.025890	0.053000
cgH 	H 	0.917190	0.790620	0.093140	0.022000
cgC 	C 	0.977010	0.859090	0.168730	-0.029000
cgH 	H 	0.992390	0.872310	0.198070	0.044000
cgH 	H 	0.978970	0.849080	0.073120	0.037000
cgH 	H 	0.970330	0.850520	0.292310	0.040000
cgC 	C 	0.658170	0.597360	0.085860	0.116000
cgC 	C 	0.679580	0.610460	0.081070	-0.081000
cgC 	C 	0.693030	0.602680	0.078860	-0.017000
cgC 	C 	0.715340	0.617550	0.075110	0.039000
cgN 	N 	0.728570	0.611730	0.042420	-0.113000
cgC 	C 	0.750450	0.624650	0.037130	0.087000
cgC 	C 	0.760650	0.644200	0.114920	-0.073000
cgC 	C 	0.782020	0.655850	0.111610	-0.019000
cgC 	C 	0.793750	0.648400	0.028750	-0.014000
cgC 	C 	0.783350	0.628810	-0.049170	-0.018000
cgC 	C 	0.762010	0.617030	-0.042520	-0.070000
cgC 	C 	0.816630	0.660860	0.025770	0.041000
cgC 	C 	0.826650	0.682390	0.025450	-0.077000
cgO 	O 	0.644400	0.604880	0.098220	-0.184000
cgH 	H 	0.686010	0.626890	0.078630	0.053000
cgH 	H 	0.752360	0.650300	0.184520	0.050000
cgH 	H 	0.789280	0.670400	0.179870	0.034000
cgH 	H 	0.791570	0.622630	-0.119010	0.032000
cgH 	H 	0.754380	0.601990	-0.102920	0.057000
cgH 	H 	0.817650	0.689900	0.025890	0.052000
cgH 	H 	0.720330	0.633610	0.093140	0.022000
cgC 	C 	0.651860	0.624960	0.168730	-0.030000
cgH 	H 	0.638640	0.627110	0.198070	0.044000
cgH 	H 	0.661870	0.636920	0.073120	0.037000
cgH 	H 	0.660430	0.626840	0.292310	0.040000
cgC 	C 	0.929660	0.610820	0.085860	0.116000
cgC 	C 	0.942750	0.602500	0.081070	-0.081000
cgC 	C 	0.934970	0.581270	0.078860	-0.017000
cgC 	C 	0.949840	0.573830	0.075110	0.039000
cgN 	N 	0.944020	0.554780	0.042420	-0.113000
cgC 	C 	0.956940	0.545820	0.037130	0.086000
cgC 	C 	0.976500	0.555170	0.114920	-0.073000
cgC 	C 	0.988150	0.545450	0.111610	-0.017000
cgC 	C 	0.980700	0.526280	0.028750	-0.015000
cgC 	C 	0.961110	0.517080	-0.049170	-0.018000
cgC 	C 	0.949320	0.526640	-0.042520	-0.070000
cgC 	C 	0.993160	0.515860	0.025770	0.038000
cgC 	C 	0.514680	0.527360	0.025450	-0.078000
cgO 	O 	0.937180	0.632100	0.098220	-0.184000
cgH 	H 	0.959190	0.612510	0.078630	0.052000
cgH 	H 	0.982600	0.569560	0.184520	0.049000
cgH 	H 	0.502700	0.552740	0.179870	0.033000
cgH 	H 	0.954930	0.502680	-0.119010	0.034000
cgH 	H 	0.934290	0.519240	-0.102920	0.058000
cgH 	H 	0.522200	0.543870	0.025890	0.049000
cgH 	H 	0.965900	0.584900	0.093140	0.020000
cgC 	C 	0.957250	0.644720	0.168730	-0.030000
cgH 	H 	0.959400	0.660090	0.198070	0.044000
cgH 	H 	0.969210	0.646670	0.073120	0.037000
cgH 	H 	0.959140	0.638040	0.292310	0.039000
cgC 	C 	0.900130	0.825870	0.085860	0.116000
cgC 	C 	0.908450	0.847290	0.081070	-0.081000
cgC 	C 	0.929680	0.860740	0.078860	-0.017000
cgC 	C 	0.937120	0.883040	0.075110	0.039000
cgN 	N 	0.956170	0.896280	0.042420	-0.113000
cgC 	C 	0.965130	0.918160	0.037130	0.086000
cgC 	C 	0.955780	0.928360	0.114920	-0.073000
cgC 	C 	0.965500	0.949730	0.111610	-0.017000
cgC 	C 	0.984670	0.961450	0.028750	-0.015000
cgC 	C 	0.993870	0.951060	-0.049170	-0.018000
cgC 	C 	0.984310	0.929710	-0.042520	-0.070000
cgC 	C 	0.995090	0.984330	0.025770	0.038000
cgC 	C 	0.983590	0.994360	0.025450	-0.078000
cgO 	O 	0.878850	0.812110	0.098220	-0.184000
cgH 	H 	0.898440	0.853710	0.078630	0.052000
cgH 	H 	0.941390	0.920070	0.184520	0.049000
cgH 	H 	0.958210	0.956990	0.179870	0.033000
cgH 	H 	0.508270	0.959280	-0.119010	0.034000
cgH 	H 	0.991710	0.922080	-0.102920	0.058000
cgH 	H 	0.967080	0.985360	0.025890	0.049000
cgH 	H 	0.926050	0.888040	0.093140	0.020000
cgC 	C 	0.866230	0.819570	0.168730	-0.030000
cgH 	H 	0.850860	0.806340	0.198070	0.044000
cgH 	H 	0.864280	0.829570	0.073120	0.037000
cgH 	H 	0.872910	0.828130	0.292310	0.039000
cgC 	C 	0.685080	0.581290	0.085860	0.116000
cgC 	C 	0.663660	0.568200	0.081070	-0.081000
cgC 	C 	0.650210	0.575980	0.078860	-0.017000
cgC 	C 	0.627910	0.561110	0.075110	0.039000
cgN 	N 	0.614670	0.566930	0.042420	-0.113000
cgC 	C 	0.592790	0.554010	0.037130	0.086000
cgC 	C 	0.582590	0.534450	0.114920	-0.073000
cgC 	C 	0.561220	0.522800	0.111610	-0.017000
cgC 	C 	0.549500	0.530250	0.028750	-0.015000
cgC 	C 	0.559890	0.549840	-0.049170	-0.018000
cgC 	C 	0.581240	0.561630	-0.042520	-0.070000
cgC 	C 	0.526620	0.517790	0.025770	0.038000
cgC 	C 	0.516590	0.996270	0.025450	-0.078000
cgO 	O 	0.698840	0.573770	0.098220	-0.184000
cgH 	H 	0.657240	0.551760	0.078630	0.052000
cgH 	H 	0.590880	0.528350	0.184520	0.049000
cgH 	H 	0.553960	0.508250	0.179870	0.033000
cgH 	H 	0.551670	0.556020	-0.119010	0.034000
cgH 	H 	0.588870	0.576660	-0.102920	0.058000
cgH 	H 	0.525590	0.988750	0.025890	0.049000
cgH 	H 	0.622910	0.545050	0.093140	0.020000
cgC 	C 	0.691380	0.553700	0.168730	-0.029000
cgH 	H 	0.704610	0.551550	0.198070	0.044000
cgH 	H 	0.681380	0.541740	0.073120	0.037000
cgH 	H 	0.682820	0.551810	0.292310	0.039000
cgC 	C 	0.741970	0.728510	0.623600	0.116000
cgC 	C 	0.728870	0.736830	0.618800	-0.081000
cgC 	C 	0.736650	0.758060	0.616600	-0.018000
cgC 	C 	0.721780	0.765500	0.612840	0.039000
cgN 	N 	0.727600	0.784550	0.580150	-0.113000
cgC 	C 	0.714680	0.793510	0.574860	0.086000
cgC 	C 	0.695130	0.784160	0.652660	-0.073000
cgC 	C 	0.683480	0.793880	0.649350	-0.017000
cgC 	C 	0.690930	0.813050	0.566490	-0.015000
cgC 	C 	0.710520	0.822250	0.488570	-0.018000
cgC 	C 	0.722300	0.812690	0.495210	-0.070000
cgC 	C 	0.678470	0.823470	0.563510	0.038000
cgC 	C 	0.656940	0.811970	0.563180	-0.078000
cgO 	O 	0.734450	0.707230	0.635960	-0.185000
cgH 	H 	0.712440	0.726820	0.616360	0.052000
cgH 	H 	0.689030	0.769770	0.722250	0.049000
cgH 	H 	0.668930	0.786590	0.717610	0.032000
cgH 	H 	0.716700	0.836650	0.418730	0.034000
cgH 	H 	0.737340	0.820090	0.434810	0.058000
cgH 	H 	0.649430	0.795460	0.563620	0.049000
cgH 	H 	0.705720	0.754430	0.630880	0.020000
cgC 	C 	0.714370	0.694610	0.706460	-0.029000
cgH 	H 	0.712220	0.679240	0.735800	0.043000
cgH 	H 	0.702410	0.692660	0.610850	0.037000
cgH 	H 	0.712490	0.701290	0.830050	0.039000
cgC 	C 	0.771490	0.513450	0.623600	0.116000
cgC 	C 	0.763170	0.992040	0.618800	-0.081000
cgC 	C 	0.741940	0.978590	0.616600	-0.017000
cgC 	C 	0.734500	0.956290	0.612840	0.039000
cgN 	N 	0.715450	0.943050	0.580150	-0.113000
cgC 	C 	0.706490	0.921170	0.574860	0.086000
cgC 	C 	0.715840	0.910970	0.652660	-0.073000
cgC 	C 	0.706120	0.889600	0.649350	-0.017000
cgC 	C 	0.686950	0.877880	0.566490	-0.015000
cgC 	C 	0.677750	0.888270	0.488570	-0.018000
cgC 	C 	0.687310	0.909620	0.495210	-0.070000
cgC 	C 	0.676530	0.855000	0.563510	0.038000
cgC 	C 	0.688030	0.844970	0.563180	-0.078000
cgO 	O 	0.792770	0.527220	0.635960	-0.185000
cgH 	H 	0.773180	0.985620	0.616360	0.052000
cgH 	H 	0.730230	0.919260	0.722250	0.049000
cgH 	H 	0.713410	0.882340	0.717610	0.032000
cgH 	H 	0.663350	0.880050	0.418730	0.034000
cgH 	H 	0.679910	0.917250	0.434810	0.058000
cgH 	H 	0.704540	0.853970	0.563620	0.049000
cgH 	H 	0.745570	0.951290	0.630880	0.020000
cgC 	C 	0.805390	0.519760	0.706460	-0.029000
cgH 	H 	0.820760	0.532990	0.735800	0.043000
cgH 	H 	0.807340	0.509760	0.610850	0.037000
cgH 	H 	0.798710	0.511200	0.830050	0.039000
cgC 	C 	0.986550	0.758030	0.623600	0.116000
cgC 	C 	0.507960	0.771130	0.618800	-0.081000
cgC 	C 	0.521410	0.763350	0.616600	-0.018000
cgC 	C 	0.543720	0.778220	0.612840	0.039000
cgN 	N 	0.556950	0.772400	0.580150	-0.113000
cgC 	C 	0.578830	0.785320	0.574860	0.086000
cgC 	C 	0.589030	0.804880	0.652660	-0.073000
cgC 	C 	0.610400	0.816520	0.649350	-0.017000
cgC 	C 	0.622130	0.809070	0.566490	-0.015000
cgC 	C 	0.611730	0.789480	0.488570	-0.018000
cgC 	C 	0.590390	0.777700	0.495210	-0.069000
cgC 	C 	0.645010	0.821540	0.563510	0.038000
cgC 	C 	0.655030	0.843060	0.563180	-0.078000
cgO 	O 	0.972780	0.765550	0.635960	-0.184000
cgH 	H 	0.514390	0.787560	0.616360	0.052000
cgH 	H 	0.580740	0.810980	0.722250	0.049000
cgH 	H 	0.617660	0.831080	0.717610	0.032000
cgH 	H 	0.619950	0.783300	0.418730	0.034000
cgH 	H 	0.582760	0.762660	0.434810	0.058000
cgH 	H 	0.646030	0.850580	0.563620	0.049000
cgH 	H 	0.548710	0.794280	0.630880	0.020000
cgC 	C 	0.980240	0.785630	0.706460	-0.029000
cgH 	H 	0.967020	0.787780	0.735800	0.043000
cgH 	H 	0.990250	0.797590	0.610850	0.037000
cgH 	H 	0.988810	0.787510	0.830050	0.039000
cgC 	C 	0.758030	0.771490	0.623600	0.116000
cgC 	C 	0.771130	0.763170	0.618800	-0.081000
cgC 	C 	0.763350	0.741940	0.616600	-0.017000
cgC 	C 	0.778220	0.734500	0.612840	0.039000
cgN 	N 	0.772400	0.715450	0.580150	-0.113000
cgC 	C 	0.785320	0.706490	0.574860	0.086000
cgC 	C 	0.804870	0.715840	0.652660	-0.075000
cgC 	C 	0.816520	0.706120	0.649350	-0.017000
cgC 	C 	0.809070	0.686950	0.566490	-0.015000
cgC 	C 	0.789480	0.677750	0.488570	-0.020000
cgC 	C 	0.777700	0.687310	0.495210	-0.070000
cgC 	C 	0.821540	0.676530	0.563510	0.040000
cgC 	C 	0.843060	0.688030	0.563180	-0.077000
cgO 	O 	0.765550	0.792780	0.635960	-0.184000
cgH 	H 	0.787560	0.773180	0.616360	0.053000
cgH 	H 	0.810980	0.730230	0.722250	0.049000
cgH 	H 	0.831080	0.713410	0.717610	0.028000
cgH 	H 	0.783300	0.663350	0.418730	0.034000
cgH 	H 	0.762660	0.679910	0.434810	0.056000
cgH 	H 	0.850570	0.704540	0.563620	0.052000
cgH 	H 	0.794280	0.745570	0.630880	0.021000
cgC 	C 	0.785630	0.805390	0.706460	-0.029000
cgH 	H 	0.787780	0.820770	0.735800	0.044000
cgH 	H 	0.797590	0.807340	0.610850	0.037000
cgH 	H 	0.787510	0.798710	0.830050	0.039000
cgC 	C 	0.728510	0.986550	0.623600	0.116000
cgC 	C 	0.736830	0.507960	0.618800	-0.081000
cgC 	C 	0.758060	0.521410	0.616600	-0.017000
cgC 	C 	0.765500	0.543720	0.612840	0.039000
cgN 	N 	0.784550	0.556950	0.580150	-0.113000
cgC 	C 	0.793510	0.578830	0.574860	0.087000
cgC 	C 	0.784160	0.589030	0.652660	-0.074000
cgC 	C 	0.793880	0.610400	0.649350	-0.017000
cgC 	C 	0.813050	0.622130	0.566490	-0.016000
cgC 	C 	0.822250	0.611730	0.488570	-0.018000
cgC 	C 	0.812690	0.590390	0.495210	-0.070000
cgC 	C 	0.823470	0.645010	0.563510	0.040000
cgC 	C 	0.811970	0.655030	0.563180	-0.078000
cgO 	O 	0.707230	0.972780	0.635960	-0.184000
cgH 	H 	0.726820	0.514390	0.616360	0.052000
cgH 	H 	0.769770	0.580740	0.722250	0.050000
cgH 	H 	0.786590	0.617660	0.717610	0.028000
cgH 	H 	0.836650	0.619950	0.418730	0.031000
cgH 	H 	0.820090	0.582760	0.434810	0.057000
cgH 	H 	0.795460	0.646030	0.563620	0.052000
cgH 	H 	0.754430	0.548710	0.630880	0.021000
cgC 	C 	0.694610	0.980240	0.706460	-0.029000
cgH 	H 	0.679240	0.967020	0.735800	0.044000
cgH 	H 	0.692660	0.990250	0.610850	0.037000
cgH 	H 	0.701290	0.988810	0.830050	0.039000
cgC 	C 	0.513460	0.741970	0.623600	0.116000
cgC 	C 	0.992040	0.728870	0.618800	-0.081000
cgC 	C 	0.978590	0.736650	0.616600	-0.017000
cgC 	C 	0.956290	0.721780	0.612840	0.039000
cgN 	N 	0.943050	0.727600	0.580150	-0.113000
cgC 	C 	0.921170	0.714680	0.574860	0.086000
cgC 	C 	0.910970	0.695130	0.652660	-0.073000
cgC 	C 	0.889600	0.683480	0.649350	-0.022000
cgC 	C 	0.877870	0.690930	0.566490	-0.013000
cgC 	C 	0.888270	0.710520	0.488570	-0.019000
cgC 	C 	0.909620	0.722300	0.495210	-0.070000
cgC 	C 	0.854990	0.678470	0.563510	0.040000
cgC 	C 	0.844970	0.656940	0.563180	-0.077000
cgO 	O 	0.527220	0.734450	0.635960	-0.184000
cgH 	H 	0.985620	0.712440	0.616360	0.053000
cgH 	H 	0.919260	0.689030	0.722250	0.048000
cgH 	H 	0.882340	0.668930	0.717610	0.032000
cgH 	H 	0.880050	0.716700	0.418730	0.033000
cgH 	H 	0.917250	0.737340	0.434810	0.056000
cgH 	H 	0.853970	0.649430	0.563620	0.052000
cgH 	H 	0.951290	0.705720	0.630880	0.022000
cgC 	C 	0.519760	0.714370	0.706460	-0.029000
cgH 	H 	0.532990	0.712220	0.735800	0.044000
cgH 	H 	0.509750	0.702410	0.610850	0.037000
cgH 	H 	0.511190	0.712490	0.830050	0.039000
_end
