data_functionalizedCrystal
_audit_creation_method	'EQeq! by Chris Wilmer'
_symmetry_space_group_name_H-M	'P1'
_symmetry_Int_Tables_number	1
_symmetry_cell_setting	triclinic
loop_
_symmetry_equiv_pos_as_xyz
  x,y,z
_cell_length_a	75.370200
_cell_length_b	75.370200
_cell_length_c	7.578600
_cell_angle_alpha	90.000000
_cell_angle_beta	90.000000
_cell_angle_gamma	120.000000
loop_
_atom_site_label
_atom_site_type_symbol
_atom_site_fract_x
_atom_site_fract_y
_atom_site_fract_z
_atom_site_charge
cgC 	C 	0.177980	0.186610	0.119750	0.112000
cgC 	C 	0.164890	0.194930	0.114950	-0.084000
cgC 	C 	0.172670	0.216160	0.112750	-0.021000
cgC 	C 	0.157800	0.223600	0.108990	0.037000
cgN 	N 	0.163620	0.242650	0.076310	-0.115000
cgC 	C 	0.150700	0.251610	0.071010	0.084000
cgC 	C 	0.131140	0.242260	0.148810	-0.075000
cgC 	C 	0.119490	0.251980	0.145500	-0.020000
cgC 	C 	0.126940	0.271150	0.062640	-0.017000
cgC 	C 	0.146530	0.280350	-0.015280	-0.020000
cgC 	C 	0.158320	0.270790	-0.008640	-0.072000
cgC 	C 	0.114480	0.281570	0.059660	0.036000
cgC 	C 	0.092960	0.270070	0.059340	-0.078000
cgO 	O 	0.170460	0.165330	0.132110	-0.188000
cgH 	H 	0.148450	0.184920	0.112510	0.050000
cgH 	H 	0.125040	0.227870	0.218410	0.047000
cgH 	H 	0.104940	0.244690	0.213760	0.030000
cgH 	H 	0.152710	0.294750	-0.085120	0.034000
cgH 	H 	0.173350	0.278190	-0.069040	0.056000
cgH 	H 	0.085440	0.253560	0.059770	0.049000
cgH 	H 	0.141740	0.212530	0.127030	0.020000
cgC 	C 	0.150390	0.152710	0.202610	-0.028000
cgH 	H 	0.148240	0.137340	0.231950	0.042000
cgH 	H 	0.138430	0.150760	0.107000	0.036000
cgH 	H 	0.148500	0.159390	0.326200	0.037000
cgC 	C 	0.207510	0.471560	0.119750	0.121000
cgC 	C 	0.199190	0.450140	0.114950	-0.075000
cgC 	C 	0.177960	0.436690	0.112750	-0.016000
cgC 	C 	0.170520	0.414390	0.108990	0.038000
cgN 	N 	0.151470	0.401150	0.076310	-0.113000
cgC 	C 	0.142510	0.379270	0.071010	0.086000
cgC 	C 	0.151860	0.369070	0.148810	-0.074000
cgC 	C 	0.142140	0.347700	0.145500	-0.018000
cgC 	C 	0.122970	0.335980	0.062640	-0.015000
cgC 	C 	0.113770	0.346370	-0.015280	-0.020000
cgC 	C 	0.123330	0.367720	-0.008640	-0.070000
cgC 	C 	0.112550	0.313100	0.059660	0.039000
cgC 	C 	0.124050	0.303070	0.059340	-0.077000
cgO 	O 	0.228790	0.485320	0.132110	-0.180000
cgH 	H 	0.209200	0.443720	0.112510	0.056000
cgH 	H 	0.166250	0.377360	0.218410	0.048000
cgH 	H 	0.149430	0.340440	0.213760	0.036000
cgH 	H 	0.099370	0.338150	-0.085120	0.030000
cgH 	H 	0.115930	0.375350	-0.069040	0.057000
cgH 	H 	0.140560	0.312070	0.059770	0.051000
cgH 	H 	0.181590	0.409390	0.127030	0.023000
cgC 	C 	0.241410	0.477860	0.202610	-0.034000
cgH 	H 	0.256780	0.491090	0.231950	0.050000
cgH 	H 	0.243360	0.467860	0.107000	0.041000
cgH 	H 	0.234730	0.469300	0.326200	0.051000
cgC 	C 	0.422560	0.216140	0.119750	0.120000
cgC 	C 	0.443980	0.229230	0.114950	-0.076000
cgC 	C 	0.457430	0.221450	0.112750	-0.015000
cgC 	C 	0.479730	0.236320	0.108990	0.043000
cgN 	N 	0.492970	0.230500	0.076310	-0.113000
cgC 	C 	0.014850	0.243420	0.071010	0.086000
cgC 	C 	0.025050	0.262980	0.148810	-0.068000
cgC 	C 	0.046420	0.274630	0.145500	-0.014000
cgC 	C 	0.058140	0.267180	0.062640	-0.011000
cgC 	C 	0.047750	0.247590	-0.015280	-0.012000
cgC 	C 	0.026400	0.235800	-0.008640	-0.053000
cgC 	C 	0.081020	0.279640	0.059660	0.041000
cgC 	C 	0.091050	0.301160	0.059340	-0.076000
cgO 	O 	0.408800	0.223660	0.132110	-0.186000
cgH 	H 	0.450400	0.245670	0.112510	0.058000
cgH 	H 	0.016760	0.269080	0.218410	0.051000
cgH 	H 	0.053680	0.289180	0.213760	0.034000
cgH 	H 	0.055970	0.241410	-0.085120	0.040000
cgH 	H 	0.018770	0.220770	-0.069040	0.049000
cgH 	H 	0.082050	0.308680	0.059770	0.048000
cgH 	H 	0.484730	0.252380	0.127030	0.024000
cgC 	C 	0.416260	0.243730	0.202610	-0.023000
cgH 	H 	0.403030	0.245880	0.231950	0.038000
cgH 	H 	0.426260	0.255690	0.107000	0.038000
cgH 	H 	0.424820	0.245620	0.326200	0.029000
cgC 	C 	0.194050	0.229590	0.119750	0.114000
cgC 	C 	0.207150	0.221270	0.114950	-0.083000
cgC 	C 	0.199370	0.200040	0.112750	-0.021000
cgC 	C 	0.214240	0.192610	0.108990	0.037000
cgN 	N 	0.208420	0.173550	0.076310	-0.115000
cgC 	C 	0.221340	0.164590	0.071010	0.088000
cgC 	C 	0.240890	0.173950	0.148810	-0.073000
cgC 	C 	0.252540	0.164230	0.145500	-0.016000
cgC 	C 	0.245090	0.145050	0.062640	-0.015000
cgC 	C 	0.225500	0.135860	-0.015280	-0.017000
cgC 	C 	0.213720	0.145420	-0.008640	-0.071000
cgC 	C 	0.257550	0.134630	0.059660	0.038000
cgC 	C 	0.279080	0.146130	0.059340	-0.080000
cgO 	O 	0.201570	0.250880	0.132110	-0.183000
cgH 	H 	0.223580	0.231280	0.112510	0.056000
cgH 	H 	0.246990	0.188340	0.218410	0.057000
cgH 	H 	0.267090	0.171520	0.213760	0.032000
cgH 	H 	0.219320	0.121460	-0.085120	0.033000
cgH 	H 	0.198680	0.138010	-0.069040	0.056000
cgH 	H 	0.286590	0.162650	0.059770	0.051000
cgH 	H 	0.230300	0.203670	0.127030	0.028000
cgC 	C 	0.221650	0.263490	0.202610	-0.033000
cgH 	H 	0.223800	0.278870	0.231950	0.055000
cgH 	H 	0.233610	0.265450	0.107000	0.045000
cgH 	H 	0.223530	0.256810	0.326200	0.048000
cgC 	C 	0.164530	0.444650	0.119750	0.116000
cgC 	C 	0.172850	0.466060	0.114950	-0.082000
cgC 	C 	0.194080	0.479510	0.112750	-0.021000
cgC 	C 	0.201510	0.001820	0.108990	0.033000
cgN 	N 	0.220570	0.015050	0.076310	-0.114000
cgC 	C 	0.229530	0.036930	0.071010	0.085000
cgC 	C 	0.220170	0.047130	0.148810	-0.074000
cgC 	C 	0.229890	0.068500	0.145500	-0.018000
cgC 	C 	0.249070	0.080230	0.062640	-0.016000
cgC 	C 	0.258260	0.069830	-0.015280	-0.019000
cgC 	C 	0.248700	0.048490	-0.008640	-0.071000
cgC 	C 	0.259490	0.103110	0.059660	0.038000
cgC 	C 	0.247990	0.113130	0.059340	-0.080000
cgO 	O 	0.143240	0.430880	0.132110	-0.185000
cgH 	H 	0.162840	0.472490	0.112510	0.049000
cgH 	H 	0.205780	0.038840	0.218410	0.047000
cgH 	H 	0.222600	0.075760	0.213760	0.031000
cgH 	H 	0.272660	0.078050	-0.085120	0.034000
cgH 	H 	0.256110	0.040860	-0.069040	0.062000
cgH 	H 	0.231470	0.104130	0.059770	0.049000
cgH 	H 	0.190450	0.006810	0.127030	0.018000
cgC 	C 	0.130630	0.438340	0.202610	-0.028000
cgH 	H 	0.115250	0.425120	0.231950	0.042000
cgH 	H 	0.128670	0.448350	0.107000	0.035000
cgH 	H 	0.137310	0.446910	0.326200	0.038000
cgC 	C 	0.449470	0.200070	0.119750	0.114000
cgC 	C 	0.428060	0.186970	0.114950	-0.083000
cgC 	C 	0.414610	0.194750	0.112750	-0.019000
cgC 	C 	0.392300	0.179880	0.108990	0.038000
cgN 	N 	0.379070	0.185700	0.076310	-0.113000
cgC 	C 	0.357190	0.172780	0.071010	0.084000
cgC 	C 	0.346990	0.153230	0.148810	-0.070000
cgC 	C 	0.325620	0.141580	0.145500	-0.018000
cgC 	C 	0.313890	0.149030	0.062640	-0.013000
cgC 	C 	0.324290	0.168620	-0.015280	-0.017000
cgC 	C 	0.345630	0.180400	-0.008640	-0.067000
cgC 	C 	0.291010	0.136570	0.059660	0.038000
cgC 	C 	0.280990	0.115040	0.059340	-0.081000
cgO 	O 	0.463240	0.192550	0.132110	-0.187000
cgH 	H 	0.421630	0.170540	0.112510	0.050000
cgH 	H 	0.355280	0.147130	0.218410	0.046000
cgH 	H 	0.318360	0.127030	0.213760	0.036000
cgH 	H 	0.316070	0.174800	-0.085120	0.037000
cgH 	H 	0.353260	0.195440	-0.069040	0.057000
cgH 	H 	0.289990	0.107530	0.059770	0.053000
cgH 	H 	0.387310	0.163820	0.127030	0.018000
cgC 	C 	0.455780	0.172470	0.202610	-0.028000
cgH 	H 	0.469000	0.170320	0.231950	0.041000
cgH 	H 	0.445770	0.160510	0.107000	0.034000
cgH 	H 	0.447210	0.170590	0.326200	0.036000
cgC 	C 	0.241970	0.228510	0.623600	0.114000
cgC 	C 	0.228870	0.236830	0.618800	-0.084000
cgC 	C 	0.236650	0.258060	0.616600	-0.022000
cgC 	C 	0.221780	0.265500	0.612840	0.036000
cgN 	N 	0.227600	0.284550	0.580150	-0.115000
cgC 	C 	0.214680	0.293510	0.574860	0.088000
cgC 	C 	0.195130	0.284160	0.652660	-0.073000
cgC 	C 	0.183480	0.293880	0.649350	-0.017000
cgC 	C 	0.190930	0.313050	0.566490	-0.016000
cgC 	C 	0.210520	0.322250	0.488570	-0.017000
cgC 	C 	0.222300	0.312690	0.495210	-0.071000
cgC 	C 	0.178470	0.323470	0.563510	0.037000
cgC 	C 	0.156940	0.311970	0.563180	-0.081000
cgO 	O 	0.234450	0.207230	0.635960	-0.184000
cgH 	H 	0.212440	0.226820	0.616360	0.055000
cgH 	H 	0.189030	0.269770	0.722250	0.056000
cgH 	H 	0.168930	0.286590	0.717610	0.031000
cgH 	H 	0.216700	0.336650	0.418730	0.032000
cgH 	H 	0.237340	0.320090	0.434810	0.056000
cgH 	H 	0.149430	0.295460	0.563620	0.051000
cgH 	H 	0.205720	0.254430	0.630880	0.027000
cgC 	C 	0.214370	0.194610	0.706460	-0.033000
cgH 	H 	0.212220	0.179240	0.735800	0.054000
cgH 	H 	0.202410	0.192660	0.610850	0.044000
cgH 	H 	0.212490	0.201290	0.830050	0.047000
cgC 	C 	0.271490	0.013450	0.623600	0.116000
cgC 	C 	0.263170	0.492040	0.618800	-0.083000
cgC 	C 	0.241940	0.478590	0.616600	-0.021000
cgC 	C 	0.234500	0.456290	0.612840	0.033000
cgN 	N 	0.215450	0.443050	0.580150	-0.114000
cgC 	C 	0.206490	0.421170	0.574860	0.084000
cgC 	C 	0.215840	0.410970	0.652660	-0.075000
cgC 	C 	0.206120	0.389600	0.649350	-0.018000
cgC 	C 	0.186950	0.377870	0.566490	-0.016000
cgC 	C 	0.177750	0.388270	0.488570	-0.019000
cgC 	C 	0.187310	0.409620	0.495210	-0.071000
cgC 	C 	0.176530	0.354990	0.563510	0.037000
cgC 	C 	0.188030	0.344970	0.563180	-0.080000
cgO 	O 	0.292770	0.027220	0.635960	-0.186000
cgH 	H 	0.273180	0.485620	0.616360	0.049000
cgH 	H 	0.230230	0.419260	0.722250	0.047000
cgH 	H 	0.213410	0.382340	0.717610	0.031000
cgH 	H 	0.163350	0.380050	0.418730	0.033000
cgH 	H 	0.179910	0.417250	0.434810	0.061000
cgH 	H 	0.204540	0.353970	0.563620	0.048000
cgH 	H 	0.245570	0.451290	0.630880	0.018000
cgC 	C 	0.305390	0.019760	0.706460	-0.028000
cgH 	H 	0.320760	0.032990	0.735800	0.042000
cgH 	H 	0.307340	0.009750	0.610850	0.035000
cgH 	H 	0.298710	0.011200	0.830050	0.038000
cgC 	C 	0.486550	0.258030	0.623600	0.114000
cgC 	C 	0.007960	0.271130	0.618800	-0.084000
cgC 	C 	0.021410	0.263350	0.616600	-0.019000
cgC 	C 	0.043720	0.278220	0.612840	0.038000
cgN 	N 	0.056950	0.272400	0.580150	-0.114000
cgC 	C 	0.078830	0.285320	0.574860	0.083000
cgC 	C 	0.089030	0.304880	0.652660	-0.071000
cgC 	C 	0.110400	0.316530	0.649350	-0.018000
cgC 	C 	0.122130	0.309070	0.566490	-0.013000
cgC 	C 	0.111730	0.289480	0.488570	-0.018000
cgC 	C 	0.090390	0.277700	0.495210	-0.067000
cgC 	C 	0.145010	0.321540	0.563510	0.037000
cgC 	C 	0.155030	0.343060	0.563180	-0.081000
cgO 	O 	0.472780	0.265550	0.635960	-0.188000
cgH 	H 	0.014390	0.287560	0.616360	0.050000
cgH 	H 	0.080740	0.310980	0.722250	0.045000
cgH 	H 	0.117660	0.331080	0.717610	0.035000
cgH 	H 	0.119950	0.283300	0.418730	0.036000
cgH 	H 	0.082760	0.262660	0.434810	0.056000
cgH 	H 	0.146030	0.350580	0.563620	0.052000
cgH 	H 	0.048710	0.294280	0.630880	0.018000
cgC 	C 	0.480240	0.285630	0.706460	-0.028000
cgH 	H 	0.467020	0.287780	0.735800	0.040000
cgH 	H 	0.490250	0.297590	0.610850	0.034000
cgH 	H 	0.488810	0.287510	0.830050	0.035000
cgC 	C 	0.258030	0.271490	0.623600	0.113000
cgC 	C 	0.271130	0.263170	0.618800	-0.083000
cgC 	C 	0.263350	0.241940	0.616600	-0.020000
cgC 	C 	0.278220	0.234500	0.612840	0.037000
cgN 	N 	0.272400	0.215450	0.580150	-0.114000
cgC 	C 	0.285320	0.206490	0.574860	0.085000
cgC 	C 	0.304870	0.215840	0.652660	-0.074000
cgC 	C 	0.316520	0.206120	0.649350	-0.020000
cgC 	C 	0.309070	0.186950	0.566490	-0.017000
cgC 	C 	0.289480	0.177750	0.488570	-0.020000
cgC 	C 	0.277700	0.187310	0.495210	-0.071000
cgC 	C 	0.321530	0.176530	0.563510	0.037000
cgC 	C 	0.343060	0.188030	0.563180	-0.078000
cgO 	O 	0.265550	0.292770	0.635960	-0.187000
cgH 	H 	0.287560	0.273180	0.616360	0.051000
cgH 	H 	0.310970	0.230230	0.722250	0.048000
cgH 	H 	0.331080	0.213410	0.717610	0.030000
cgH 	H 	0.283300	0.163350	0.418730	0.034000
cgH 	H 	0.262660	0.179910	0.434810	0.055000
cgH 	H 	0.350570	0.204540	0.563620	0.048000
cgH 	H 	0.294280	0.245570	0.630880	0.019000
cgC 	C 	0.285630	0.305390	0.706460	-0.029000
cgH 	H 	0.287780	0.320760	0.735800	0.042000
cgH 	H 	0.297590	0.307340	0.610850	0.035000
cgH 	H 	0.287510	0.298710	0.830050	0.037000
cgC 	C 	0.228510	0.486550	0.623600	0.121000
cgC 	C 	0.236830	0.007960	0.618800	-0.075000
cgC 	C 	0.258060	0.021410	0.616600	-0.016000
cgC 	C 	0.265500	0.043720	0.612840	0.037000
cgN 	N 	0.284550	0.056950	0.580150	-0.113000
cgC 	C 	0.293510	0.078830	0.574860	0.085000
cgC 	C 	0.284160	0.089030	0.652660	-0.075000
cgC 	C 	0.293880	0.110400	0.649350	-0.019000
cgC 	C 	0.313050	0.122130	0.566490	-0.016000
cgC 	C 	0.322250	0.111730	0.488570	-0.020000
cgC 	C 	0.312690	0.090390	0.495210	-0.071000
cgC 	C 	0.323470	0.145010	0.563510	0.039000
cgC 	C 	0.311970	0.155030	0.563180	-0.077000
cgO 	O 	0.207230	0.472780	0.635960	-0.180000
cgH 	H 	0.226820	0.014380	0.616360	0.056000
cgH 	H 	0.269770	0.080740	0.722250	0.047000
cgH 	H 	0.286590	0.117660	0.717610	0.036000
cgH 	H 	0.336650	0.119950	0.418730	0.029000
cgH 	H 	0.320090	0.082760	0.434810	0.056000
cgH 	H 	0.295460	0.146030	0.563620	0.051000
cgH 	H 	0.254430	0.048710	0.630880	0.023000
cgC 	C 	0.194610	0.480240	0.706460	-0.033000
cgH 	H 	0.179240	0.467020	0.735800	0.049000
cgH 	H 	0.192660	0.490250	0.610850	0.039000
cgH 	H 	0.201290	0.488810	0.830050	0.050000
cgC 	C 	0.013450	0.241970	0.623600	0.119000
cgC 	C 	0.492040	0.228870	0.618800	-0.077000
cgC 	C 	0.478590	0.236650	0.616600	-0.015000
cgC 	C 	0.456280	0.221780	0.612840	0.042000
cgN 	N 	0.443050	0.227600	0.580150	-0.113000
cgC 	C 	0.421170	0.214680	0.574860	0.085000
cgC 	C 	0.410970	0.195130	0.652660	-0.069000
cgC 	C 	0.389600	0.183480	0.649350	-0.014000
cgC 	C 	0.377870	0.190930	0.566490	-0.011000
cgC 	C 	0.388270	0.210520	0.488570	-0.013000
cgC 	C 	0.409620	0.222300	0.495210	-0.054000
cgC 	C 	0.354990	0.178470	0.563510	0.040000
cgC 	C 	0.344970	0.156940	0.563180	-0.076000
cgO 	O 	0.027220	0.234450	0.635960	-0.187000
cgH 	H 	0.485620	0.212440	0.616360	0.058000
cgH 	H 	0.419260	0.189030	0.722250	0.050000
cgH 	H 	0.382340	0.168930	0.717610	0.033000
cgH 	H 	0.380050	0.216700	0.418730	0.039000
cgH 	H 	0.417250	0.237340	0.434810	0.047000
cgH 	H 	0.353970	0.149430	0.563620	0.047000
cgH 	H 	0.451290	0.205720	0.630880	0.024000
cgC 	C 	0.019760	0.214370	0.706460	-0.022000
cgH 	H 	0.032980	0.212220	0.735800	0.037000
cgH 	H 	0.009750	0.202410	0.610850	0.038000
cgH 	H 	0.011190	0.212490	0.830050	0.025000
cgC 	C 	0.677980	0.186610	0.119750	0.113000
cgC 	C 	0.664890	0.194930	0.114950	-0.083000
cgC 	C 	0.672670	0.216160	0.112750	-0.020000
cgC 	C 	0.657800	0.223600	0.108990	0.038000
cgN 	N 	0.663620	0.242650	0.076310	-0.114000
cgC 	C 	0.650700	0.251610	0.071010	0.085000
cgC 	C 	0.631140	0.242260	0.148810	-0.074000
cgC 	C 	0.619490	0.251980	0.145500	-0.019000
cgC 	C 	0.626940	0.271150	0.062640	-0.016000
cgC 	C 	0.646530	0.280350	-0.015280	-0.019000
cgC 	C 	0.658320	0.270790	-0.008640	-0.071000
cgC 	C 	0.614480	0.281570	0.059660	0.037000
cgC 	C 	0.592960	0.270070	0.059340	-0.077000
cgO 	O 	0.670460	0.165330	0.132110	-0.187000
cgH 	H 	0.648450	0.184920	0.112510	0.051000
cgH 	H 	0.625040	0.227870	0.218410	0.048000
cgH 	H 	0.604940	0.244690	0.213760	0.031000
cgH 	H 	0.652710	0.294750	-0.085120	0.034000
cgH 	H 	0.673350	0.278190	-0.069040	0.056000
cgH 	H 	0.585440	0.253560	0.059770	0.049000
cgH 	H 	0.641740	0.212530	0.127030	0.020000
cgC 	C 	0.650390	0.152710	0.202610	-0.028000
cgH 	H 	0.648240	0.137340	0.231950	0.042000
cgH 	H 	0.638430	0.150760	0.107000	0.036000
cgH 	H 	0.648500	0.159390	0.326200	0.037000
cgC 	C 	0.707510	0.471560	0.119750	0.121000
cgC 	C 	0.699190	0.450140	0.114950	-0.075000
cgC 	C 	0.677960	0.436690	0.112750	-0.016000
cgC 	C 	0.670520	0.414390	0.108990	0.038000
cgN 	N 	0.651470	0.401150	0.076310	-0.113000
cgC 	C 	0.642510	0.379270	0.071010	0.086000
cgC 	C 	0.651860	0.369070	0.148810	-0.074000
cgC 	C 	0.642140	0.347700	0.145500	-0.018000
cgC 	C 	0.622970	0.335980	0.062640	-0.015000
cgC 	C 	0.613770	0.346370	-0.015280	-0.020000
cgC 	C 	0.623330	0.367720	-0.008640	-0.070000
cgC 	C 	0.612550	0.313100	0.059660	0.039000
cgC 	C 	0.624050	0.303070	0.059340	-0.077000
cgO 	O 	0.728790	0.485320	0.132110	-0.180000
cgH 	H 	0.709200	0.443720	0.112510	0.056000
cgH 	H 	0.666250	0.377360	0.218410	0.048000
cgH 	H 	0.649430	0.340440	0.213760	0.036000
cgH 	H 	0.599370	0.338150	-0.085120	0.030000
cgH 	H 	0.615930	0.375350	-0.069040	0.057000
cgH 	H 	0.640560	0.312070	0.059770	0.051000
cgH 	H 	0.681590	0.409390	0.127030	0.023000
cgC 	C 	0.741410	0.477860	0.202610	-0.034000
cgH 	H 	0.756780	0.491090	0.231950	0.050000
cgH 	H 	0.743360	0.467860	0.107000	0.041000
cgH 	H 	0.734730	0.469300	0.326200	0.051000
cgC 	C 	0.922560	0.216140	0.119750	0.120000
cgC 	C 	0.943980	0.229230	0.114950	-0.076000
cgC 	C 	0.957430	0.221450	0.112750	-0.015000
cgC 	C 	0.979730	0.236320	0.108990	0.043000
cgN 	N 	0.992970	0.230500	0.076310	-0.113000
cgC 	C 	0.514850	0.243420	0.071010	0.086000
cgC 	C 	0.525050	0.262980	0.148810	-0.068000
cgC 	C 	0.546420	0.274630	0.145500	-0.014000
cgC 	C 	0.558140	0.267180	0.062640	-0.011000
cgC 	C 	0.547750	0.247590	-0.015280	-0.012000
cgC 	C 	0.526400	0.235800	-0.008640	-0.053000
cgC 	C 	0.581020	0.279640	0.059660	0.041000
cgC 	C 	0.591050	0.301160	0.059340	-0.076000
cgO 	O 	0.908800	0.223660	0.132110	-0.186000
cgH 	H 	0.950400	0.245670	0.112510	0.058000
cgH 	H 	0.516760	0.269080	0.218410	0.051000
cgH 	H 	0.553680	0.289180	0.213760	0.034000
cgH 	H 	0.555970	0.241410	-0.085120	0.040000
cgH 	H 	0.518770	0.220770	-0.069040	0.049000
cgH 	H 	0.582050	0.308680	0.059770	0.048000
cgH 	H 	0.984730	0.252380	0.127030	0.024000
cgC 	C 	0.916260	0.243730	0.202610	-0.023000
cgH 	H 	0.903030	0.245880	0.231950	0.038000
cgH 	H 	0.926260	0.255690	0.107000	0.038000
cgH 	H 	0.924820	0.245620	0.326200	0.029000
cgC 	C 	0.694050	0.229590	0.119750	0.114000
cgC 	C 	0.707150	0.221270	0.114950	-0.083000
cgC 	C 	0.699370	0.200040	0.112750	-0.021000
cgC 	C 	0.714240	0.192610	0.108990	0.037000
cgN 	N 	0.708420	0.173550	0.076310	-0.115000
cgC 	C 	0.721340	0.164590	0.071010	0.088000
cgC 	C 	0.740890	0.173950	0.148810	-0.073000
cgC 	C 	0.752540	0.164230	0.145500	-0.016000
cgC 	C 	0.745090	0.145050	0.062640	-0.015000
cgC 	C 	0.725500	0.135860	-0.015280	-0.017000
cgC 	C 	0.713720	0.145420	-0.008640	-0.071000
cgC 	C 	0.757550	0.134630	0.059660	0.038000
cgC 	C 	0.779080	0.146130	0.059340	-0.080000
cgO 	O 	0.701570	0.250880	0.132110	-0.183000
cgH 	H 	0.723580	0.231280	0.112510	0.056000
cgH 	H 	0.746990	0.188340	0.218410	0.057000
cgH 	H 	0.767090	0.171520	0.213760	0.032000
cgH 	H 	0.719320	0.121460	-0.085120	0.033000
cgH 	H 	0.698680	0.138010	-0.069040	0.056000
cgH 	H 	0.786590	0.162650	0.059770	0.051000
cgH 	H 	0.730300	0.203670	0.127030	0.028000
cgC 	C 	0.721650	0.263490	0.202610	-0.033000
cgH 	H 	0.723800	0.278870	0.231950	0.055000
cgH 	H 	0.733610	0.265450	0.107000	0.045000
cgH 	H 	0.723530	0.256810	0.326200	0.048000
cgC 	C 	0.664530	0.444650	0.119750	0.116000
cgC 	C 	0.672850	0.466060	0.114950	-0.082000
cgC 	C 	0.694080	0.479510	0.112750	-0.021000
cgC 	C 	0.701510	0.001820	0.108990	0.033000
cgN 	N 	0.720570	0.015050	0.076310	-0.114000
cgC 	C 	0.729530	0.036930	0.071010	0.085000
cgC 	C 	0.720170	0.047130	0.148810	-0.074000
cgC 	C 	0.729890	0.068500	0.145500	-0.018000
cgC 	C 	0.749070	0.080230	0.062640	-0.016000
cgC 	C 	0.758260	0.069830	-0.015280	-0.019000
cgC 	C 	0.748700	0.048490	-0.008640	-0.071000
cgC 	C 	0.759490	0.103110	0.059660	0.038000
cgC 	C 	0.747990	0.113130	0.059340	-0.080000
cgO 	O 	0.643240	0.430880	0.132110	-0.185000
cgH 	H 	0.662840	0.472490	0.112510	0.049000
cgH 	H 	0.705780	0.038840	0.218410	0.047000
cgH 	H 	0.722600	0.075760	0.213760	0.031000
cgH 	H 	0.772660	0.078050	-0.085120	0.034000
cgH 	H 	0.756110	0.040860	-0.069040	0.062000
cgH 	H 	0.731470	0.104130	0.059770	0.049000
cgH 	H 	0.690450	0.006810	0.127030	0.018000
cgC 	C 	0.630630	0.438340	0.202610	-0.028000
cgH 	H 	0.615250	0.425120	0.231950	0.042000
cgH 	H 	0.628670	0.448350	0.107000	0.035000
cgH 	H 	0.637310	0.446910	0.326200	0.038000
cgC 	C 	0.949470	0.200070	0.119750	0.114000
cgC 	C 	0.928060	0.186970	0.114950	-0.083000
cgC 	C 	0.914610	0.194750	0.112750	-0.019000
cgC 	C 	0.892300	0.179880	0.108990	0.038000
cgN 	N 	0.879070	0.185700	0.076310	-0.113000
cgC 	C 	0.857190	0.172780	0.071010	0.084000
cgC 	C 	0.846990	0.153230	0.148810	-0.070000
cgC 	C 	0.825620	0.141580	0.145500	-0.018000
cgC 	C 	0.813890	0.149030	0.062640	-0.013000
cgC 	C 	0.824290	0.168620	-0.015280	-0.017000
cgC 	C 	0.845630	0.180400	-0.008640	-0.067000
cgC 	C 	0.791010	0.136570	0.059660	0.038000
cgC 	C 	0.780990	0.115040	0.059340	-0.081000
cgO 	O 	0.963240	0.192550	0.132110	-0.187000
cgH 	H 	0.921630	0.170540	0.112510	0.050000
cgH 	H 	0.855280	0.147130	0.218410	0.046000
cgH 	H 	0.818360	0.127030	0.213760	0.036000
cgH 	H 	0.816070	0.174800	-0.085120	0.037000
cgH 	H 	0.853260	0.195440	-0.069040	0.057000
cgH 	H 	0.789990	0.107530	0.059770	0.053000
cgH 	H 	0.887310	0.163820	0.127030	0.018000
cgC 	C 	0.955780	0.172470	0.202610	-0.028000
cgH 	H 	0.969000	0.170320	0.231950	0.041000
cgH 	H 	0.945770	0.160510	0.107000	0.034000
cgH 	H 	0.947210	0.170590	0.326200	0.036000
cgC 	C 	0.741970	0.228510	0.623600	0.114000
cgC 	C 	0.728870	0.236830	0.618800	-0.084000
cgC 	C 	0.736650	0.258060	0.616600	-0.022000
cgC 	C 	0.721780	0.265500	0.612840	0.036000
cgN 	N 	0.727600	0.284550	0.580150	-0.115000
cgC 	C 	0.714680	0.293510	0.574860	0.088000
cgC 	C 	0.695130	0.284160	0.652660	-0.073000
cgC 	C 	0.683480	0.293880	0.649350	-0.017000
cgC 	C 	0.690930	0.313050	0.566490	-0.016000
cgC 	C 	0.710520	0.322250	0.488570	-0.017000
cgC 	C 	0.722300	0.312690	0.495210	-0.071000
cgC 	C 	0.678470	0.323470	0.563510	0.037000
cgC 	C 	0.656940	0.311970	0.563180	-0.081000
cgO 	O 	0.734450	0.207230	0.635960	-0.184000
cgH 	H 	0.712440	0.226820	0.616360	0.055000
cgH 	H 	0.689030	0.269770	0.722250	0.056000
cgH 	H 	0.668930	0.286590	0.717610	0.031000
cgH 	H 	0.716700	0.336650	0.418730	0.032000
cgH 	H 	0.737340	0.320090	0.434810	0.056000
cgH 	H 	0.649430	0.295460	0.563620	0.051000
cgH 	H 	0.705720	0.254430	0.630880	0.027000
cgC 	C 	0.714370	0.194610	0.706460	-0.033000
cgH 	H 	0.712220	0.179240	0.735800	0.054000
cgH 	H 	0.702410	0.192660	0.610850	0.044000
cgH 	H 	0.712490	0.201290	0.830050	0.047000
cgC 	C 	0.771490	0.013450	0.623600	0.116000
cgC 	C 	0.763170	0.492040	0.618800	-0.083000
cgC 	C 	0.741940	0.478590	0.616600	-0.021000
cgC 	C 	0.734500	0.456290	0.612840	0.033000
cgN 	N 	0.715450	0.443050	0.580150	-0.114000
cgC 	C 	0.706490	0.421170	0.574860	0.084000
cgC 	C 	0.715840	0.410970	0.652660	-0.075000
cgC 	C 	0.706120	0.389600	0.649350	-0.018000
cgC 	C 	0.686950	0.377880	0.566490	-0.016000
cgC 	C 	0.677750	0.388270	0.488570	-0.019000
cgC 	C 	0.687310	0.409620	0.495210	-0.071000
cgC 	C 	0.676530	0.354990	0.563510	0.037000
cgC 	C 	0.688030	0.344970	0.563180	-0.080000
cgO 	O 	0.792770	0.027220	0.635960	-0.186000
cgH 	H 	0.773180	0.485620	0.616360	0.049000
cgH 	H 	0.730230	0.419260	0.722250	0.047000
cgH 	H 	0.713410	0.382340	0.717610	0.031000
cgH 	H 	0.663350	0.380050	0.418730	0.033000
cgH 	H 	0.679910	0.417250	0.434810	0.061000
cgH 	H 	0.704540	0.353970	0.563620	0.048000
cgH 	H 	0.745570	0.451290	0.630880	0.018000
cgC 	C 	0.805390	0.019760	0.706460	-0.028000
cgH 	H 	0.820760	0.032980	0.735800	0.042000
cgH 	H 	0.807340	0.009750	0.610850	0.035000
cgH 	H 	0.798710	0.011200	0.830050	0.038000
cgC 	C 	0.986550	0.258030	0.623600	0.114000
cgC 	C 	0.507960	0.271130	0.618800	-0.084000
cgC 	C 	0.521410	0.263350	0.616600	-0.019000
cgC 	C 	0.543720	0.278220	0.612840	0.038000
cgN 	N 	0.556950	0.272400	0.580150	-0.114000
cgC 	C 	0.578830	0.285320	0.574860	0.083000
cgC 	C 	0.589030	0.304880	0.652660	-0.071000
cgC 	C 	0.610400	0.316520	0.649350	-0.018000
cgC 	C 	0.622130	0.309070	0.566490	-0.013000
cgC 	C 	0.611730	0.289480	0.488570	-0.018000
cgC 	C 	0.590390	0.277700	0.495210	-0.067000
cgC 	C 	0.645010	0.321540	0.563510	0.037000
cgC 	C 	0.655030	0.343060	0.563180	-0.081000
cgO 	O 	0.972780	0.265550	0.635960	-0.188000
cgH 	H 	0.514390	0.287560	0.616360	0.050000
cgH 	H 	0.580740	0.310980	0.722250	0.045000
cgH 	H 	0.617660	0.331080	0.717610	0.035000
cgH 	H 	0.619950	0.283300	0.418730	0.036000
cgH 	H 	0.582760	0.262660	0.434810	0.056000
cgH 	H 	0.646030	0.350580	0.563620	0.052000
cgH 	H 	0.548710	0.294280	0.630880	0.018000
cgC 	C 	0.980240	0.285630	0.706460	-0.028000
cgH 	H 	0.967020	0.287780	0.735800	0.040000
cgH 	H 	0.990250	0.297590	0.610850	0.034000
cgH 	H 	0.988810	0.287510	0.830050	0.035000
cgC 	C 	0.758030	0.271490	0.623600	0.113000
cgC 	C 	0.771130	0.263170	0.618800	-0.083000
cgC 	C 	0.763350	0.241940	0.616600	-0.020000
cgC 	C 	0.778220	0.234500	0.612840	0.037000
cgN 	N 	0.772400	0.215450	0.580150	-0.114000
cgC 	C 	0.785320	0.206490	0.574860	0.085000
cgC 	C 	0.804870	0.215840	0.652660	-0.074000
cgC 	C 	0.816520	0.206120	0.649350	-0.020000
cgC 	C 	0.809070	0.186950	0.566490	-0.017000
cgC 	C 	0.789480	0.177750	0.488570	-0.020000
cgC 	C 	0.777700	0.187310	0.495210	-0.071000
cgC 	C 	0.821540	0.176530	0.563510	0.037000
cgC 	C 	0.843060	0.188030	0.563180	-0.078000
cgO 	O 	0.765550	0.292770	0.635960	-0.187000
cgH 	H 	0.787560	0.273180	0.616360	0.051000
cgH 	H 	0.810980	0.230230	0.722250	0.048000
cgH 	H 	0.831080	0.213410	0.717610	0.030000
cgH 	H 	0.783300	0.163350	0.418730	0.034000
cgH 	H 	0.762660	0.179910	0.434810	0.055000
cgH 	H 	0.850570	0.204540	0.563620	0.048000
cgH 	H 	0.794280	0.245570	0.630880	0.019000
cgC 	C 	0.785630	0.305390	0.706460	-0.029000
cgH 	H 	0.787780	0.320760	0.735800	0.042000
cgH 	H 	0.797590	0.307340	0.610850	0.035000
cgH 	H 	0.787510	0.298710	0.830050	0.037000
cgC 	C 	0.728510	0.486550	0.623600	0.121000
cgC 	C 	0.736830	0.007960	0.618800	-0.075000
cgC 	C 	0.758060	0.021410	0.616600	-0.016000
cgC 	C 	0.765500	0.043720	0.612840	0.037000
cgN 	N 	0.784550	0.056950	0.580150	-0.113000
cgC 	C 	0.793510	0.078830	0.574860	0.085000
cgC 	C 	0.784160	0.089030	0.652660	-0.075000
cgC 	C 	0.793880	0.110400	0.649350	-0.019000
cgC 	C 	0.813050	0.122130	0.566490	-0.016000
cgC 	C 	0.822250	0.111730	0.488570	-0.020000
cgC 	C 	0.812690	0.090390	0.495210	-0.071000
cgC 	C 	0.823470	0.145010	0.563510	0.039000
cgC 	C 	0.811970	0.155030	0.563180	-0.077000
cgO 	O 	0.707230	0.472780	0.635960	-0.180000
cgH 	H 	0.726820	0.014380	0.616360	0.056000
cgH 	H 	0.769770	0.080740	0.722250	0.047000
cgH 	H 	0.786590	0.117660	0.717610	0.036000
cgH 	H 	0.836650	0.119950	0.418730	0.029000
cgH 	H 	0.820090	0.082760	0.434810	0.056000
cgH 	H 	0.795460	0.146030	0.563620	0.051000
cgH 	H 	0.754430	0.048710	0.630880	0.023000
cgC 	C 	0.694610	0.480240	0.706460	-0.033000
cgH 	H 	0.679240	0.467020	0.735800	0.049000
cgH 	H 	0.692660	0.490250	0.610850	0.039000
cgH 	H 	0.701290	0.488810	0.830050	0.050000
cgC 	C 	0.513460	0.241970	0.623600	0.119000
cgC 	C 	0.992040	0.228870	0.618800	-0.077000
cgC 	C 	0.978590	0.236650	0.616600	-0.015000
cgC 	C 	0.956290	0.221780	0.612840	0.042000
cgN 	N 	0.943050	0.227600	0.580150	-0.113000
cgC 	C 	0.921170	0.214680	0.574860	0.085000
cgC 	C 	0.910970	0.195130	0.652660	-0.069000
cgC 	C 	0.889600	0.183480	0.649350	-0.014000
cgC 	C 	0.877870	0.190930	0.566490	-0.011000
cgC 	C 	0.888270	0.210520	0.488570	-0.013000
cgC 	C 	0.909620	0.222300	0.495210	-0.054000
cgC 	C 	0.854990	0.178470	0.563510	0.040000
cgC 	C 	0.844970	0.156940	0.563180	-0.076000
cgO 	O 	0.527220	0.234450	0.635960	-0.187000
cgH 	H 	0.985620	0.212440	0.616360	0.058000
cgH 	H 	0.919260	0.189030	0.722250	0.050000
cgH 	H 	0.882340	0.168930	0.717610	0.033000
cgH 	H 	0.880050	0.216700	0.418730	0.039000
cgH 	H 	0.917250	0.237340	0.434810	0.047000
cgH 	H 	0.853970	0.149430	0.563620	0.047000
cgH 	H 	0.951290	0.205720	0.630880	0.024000
cgC 	C 	0.519760	0.214370	0.706460	-0.022000
cgH 	H 	0.532990	0.212220	0.735800	0.037000
cgH 	H 	0.509750	0.202410	0.610850	0.038000
cgH 	H 	0.511190	0.212490	0.830050	0.025000
cgC 	C 	0.177980	0.686610	0.119750	0.113000
cgC 	C 	0.164890	0.694930	0.114950	-0.083000
cgC 	C 	0.172670	0.716160	0.112750	-0.020000
cgC 	C 	0.157800	0.723600	0.108990	0.038000
cgN 	N 	0.163620	0.742650	0.076310	-0.114000
cgC 	C 	0.150700	0.751610	0.071010	0.085000
cgC 	C 	0.131140	0.742260	0.148810	-0.074000
cgC 	C 	0.119490	0.751980	0.145500	-0.019000
cgC 	C 	0.126940	0.771150	0.062640	-0.016000
cgC 	C 	0.146530	0.780350	-0.015280	-0.019000
cgC 	C 	0.158320	0.770790	-0.008640	-0.071000
cgC 	C 	0.114480	0.781570	0.059660	0.037000
cgC 	C 	0.092960	0.770070	0.059340	-0.077000
cgO 	O 	0.170460	0.665330	0.132110	-0.187000
cgH 	H 	0.148450	0.684920	0.112510	0.051000
cgH 	H 	0.125040	0.727870	0.218410	0.048000
cgH 	H 	0.104940	0.744690	0.213760	0.031000
cgH 	H 	0.152710	0.794750	-0.085120	0.034000
cgH 	H 	0.173350	0.778190	-0.069040	0.056000
cgH 	H 	0.085440	0.753560	0.059770	0.049000
cgH 	H 	0.141740	0.712530	0.127030	0.020000
cgC 	C 	0.150390	0.652710	0.202610	-0.028000
cgH 	H 	0.148240	0.637340	0.231950	0.042000
cgH 	H 	0.138430	0.650760	0.107000	0.036000
cgH 	H 	0.148500	0.659390	0.326200	0.037000
cgC 	C 	0.207510	0.971560	0.119750	0.121000
cgC 	C 	0.199190	0.950140	0.114950	-0.075000
cgC 	C 	0.177960	0.936690	0.112750	-0.016000
cgC 	C 	0.170520	0.914390	0.108990	0.038000
cgN 	N 	0.151470	0.901150	0.076310	-0.113000
cgC 	C 	0.142510	0.879270	0.071010	0.086000
cgC 	C 	0.151860	0.869070	0.148810	-0.074000
cgC 	C 	0.142140	0.847700	0.145500	-0.018000
cgC 	C 	0.122970	0.835980	0.062640	-0.015000
cgC 	C 	0.113770	0.846370	-0.015280	-0.020000
cgC 	C 	0.123330	0.867720	-0.008640	-0.070000
cgC 	C 	0.112550	0.813100	0.059660	0.039000
cgC 	C 	0.124050	0.803070	0.059340	-0.077000
cgO 	O 	0.228790	0.985320	0.132110	-0.180000
cgH 	H 	0.209200	0.943720	0.112510	0.056000
cgH 	H 	0.166250	0.877360	0.218410	0.048000
cgH 	H 	0.149430	0.840440	0.213760	0.036000
cgH 	H 	0.099370	0.838150	-0.085120	0.030000
cgH 	H 	0.115930	0.875350	-0.069040	0.057000
cgH 	H 	0.140560	0.812070	0.059770	0.051000
cgH 	H 	0.181590	0.909390	0.127030	0.023000
cgC 	C 	0.241410	0.977860	0.202610	-0.034000
cgH 	H 	0.256780	0.991090	0.231950	0.050000
cgH 	H 	0.243360	0.967860	0.107000	0.041000
cgH 	H 	0.234730	0.969300	0.326200	0.051000
cgC 	C 	0.422560	0.716140	0.119750	0.120000
cgC 	C 	0.443980	0.729230	0.114950	-0.076000
cgC 	C 	0.457430	0.721450	0.112750	-0.015000
cgC 	C 	0.479730	0.736320	0.108990	0.043000
cgN 	N 	0.492970	0.730500	0.076310	-0.113000
cgC 	C 	0.014850	0.743420	0.071010	0.086000
cgC 	C 	0.025050	0.762980	0.148810	-0.068000
cgC 	C 	0.046420	0.774630	0.145500	-0.014000
cgC 	C 	0.058140	0.767180	0.062640	-0.011000
cgC 	C 	0.047750	0.747590	-0.015280	-0.012000
cgC 	C 	0.026400	0.735800	-0.008640	-0.053000
cgC 	C 	0.081020	0.779640	0.059660	0.041000
cgC 	C 	0.091050	0.801160	0.059340	-0.076000
cgO 	O 	0.408800	0.723660	0.132110	-0.186000
cgH 	H 	0.450400	0.745670	0.112510	0.058000
cgH 	H 	0.016760	0.769080	0.218410	0.051000
cgH 	H 	0.053680	0.789180	0.213760	0.034000
cgH 	H 	0.055970	0.741410	-0.085120	0.040000
cgH 	H 	0.018770	0.720770	-0.069040	0.049000
cgH 	H 	0.082050	0.808680	0.059770	0.048000
cgH 	H 	0.484730	0.752380	0.127030	0.024000
cgC 	C 	0.416260	0.743730	0.202610	-0.023000
cgH 	H 	0.403030	0.745880	0.231950	0.038000
cgH 	H 	0.426260	0.755690	0.107000	0.038000
cgH 	H 	0.424820	0.745620	0.326200	0.029000
cgC 	C 	0.194050	0.729590	0.119750	0.114000
cgC 	C 	0.207150	0.721270	0.114950	-0.083000
cgC 	C 	0.199370	0.700040	0.112750	-0.021000
cgC 	C 	0.214240	0.692610	0.108990	0.037000
cgN 	N 	0.208420	0.673550	0.076310	-0.115000
cgC 	C 	0.221340	0.664590	0.071010	0.088000
cgC 	C 	0.240890	0.673950	0.148810	-0.073000
cgC 	C 	0.252540	0.664230	0.145500	-0.016000
cgC 	C 	0.245090	0.645050	0.062640	-0.015000
cgC 	C 	0.225500	0.635860	-0.015280	-0.017000
cgC 	C 	0.213720	0.645420	-0.008640	-0.071000
cgC 	C 	0.257550	0.634630	0.059660	0.038000
cgC 	C 	0.279080	0.646130	0.059340	-0.080000
cgO 	O 	0.201570	0.750880	0.132110	-0.183000
cgH 	H 	0.223580	0.731280	0.112510	0.056000
cgH 	H 	0.246990	0.688340	0.218410	0.057000
cgH 	H 	0.267090	0.671520	0.213760	0.032000
cgH 	H 	0.219320	0.621460	-0.085120	0.033000
cgH 	H 	0.198680	0.638010	-0.069040	0.056000
cgH 	H 	0.286590	0.662650	0.059770	0.051000
cgH 	H 	0.230300	0.703670	0.127030	0.028000
cgC 	C 	0.221650	0.763490	0.202610	-0.033000
cgH 	H 	0.223800	0.778870	0.231950	0.055000
cgH 	H 	0.233610	0.765450	0.107000	0.045000
cgH 	H 	0.223530	0.756810	0.326200	0.048000
cgC 	C 	0.164530	0.944650	0.119750	0.116000
cgC 	C 	0.172850	0.966060	0.114950	-0.082000
cgC 	C 	0.194080	0.979510	0.112750	-0.021000
cgC 	C 	0.201510	0.501820	0.108990	0.033000
cgN 	N 	0.220570	0.515050	0.076310	-0.114000
cgC 	C 	0.229530	0.536930	0.071010	0.085000
cgC 	C 	0.220170	0.547130	0.148810	-0.074000
cgC 	C 	0.229890	0.568500	0.145500	-0.018000
cgC 	C 	0.249070	0.580230	0.062640	-0.016000
cgC 	C 	0.258260	0.569830	-0.015280	-0.019000
cgC 	C 	0.248700	0.548490	-0.008640	-0.071000
cgC 	C 	0.259490	0.603110	0.059660	0.038000
cgC 	C 	0.247990	0.613130	0.059340	-0.080000
cgO 	O 	0.143240	0.930880	0.132110	-0.185000
cgH 	H 	0.162840	0.972490	0.112510	0.049000
cgH 	H 	0.205780	0.538840	0.218410	0.047000
cgH 	H 	0.222600	0.575760	0.213760	0.031000
cgH 	H 	0.272660	0.578050	-0.085120	0.034000
cgH 	H 	0.256110	0.540860	-0.069040	0.062000
cgH 	H 	0.231470	0.604130	0.059770	0.049000
cgH 	H 	0.190450	0.506810	0.127030	0.018000
cgC 	C 	0.130630	0.938340	0.202610	-0.028000
cgH 	H 	0.115250	0.925120	0.231950	0.042000
cgH 	H 	0.128670	0.948350	0.107000	0.035000
cgH 	H 	0.137310	0.946910	0.326200	0.038000
cgC 	C 	0.449470	0.700070	0.119750	0.114000
cgC 	C 	0.428060	0.686970	0.114950	-0.083000
cgC 	C 	0.414610	0.694750	0.112750	-0.019000
cgC 	C 	0.392300	0.679880	0.108990	0.038000
cgN 	N 	0.379070	0.685700	0.076310	-0.113000
cgC 	C 	0.357190	0.672780	0.071010	0.084000
cgC 	C 	0.346990	0.653230	0.148810	-0.070000
cgC 	C 	0.325620	0.641580	0.145500	-0.018000
cgC 	C 	0.313890	0.649030	0.062640	-0.013000
cgC 	C 	0.324290	0.668620	-0.015280	-0.017000
cgC 	C 	0.345630	0.680400	-0.008640	-0.067000
cgC 	C 	0.291010	0.636570	0.059660	0.038000
cgC 	C 	0.280990	0.615040	0.059340	-0.081000
cgO 	O 	0.463240	0.692550	0.132110	-0.187000
cgH 	H 	0.421630	0.670540	0.112510	0.050000
cgH 	H 	0.355280	0.647130	0.218410	0.046000
cgH 	H 	0.318360	0.627030	0.213760	0.036000
cgH 	H 	0.316070	0.674800	-0.085120	0.037000
cgH 	H 	0.353260	0.695440	-0.069040	0.057000
cgH 	H 	0.289990	0.607530	0.059770	0.053000
cgH 	H 	0.387310	0.663820	0.127030	0.018000
cgC 	C 	0.455780	0.672470	0.202610	-0.028000
cgH 	H 	0.469000	0.670320	0.231950	0.041000
cgH 	H 	0.445770	0.660510	0.107000	0.034000
cgH 	H 	0.447210	0.670590	0.326200	0.036000
cgC 	C 	0.241970	0.728510	0.623600	0.114000
cgC 	C 	0.228870	0.736830	0.618800	-0.084000
cgC 	C 	0.236650	0.758060	0.616600	-0.022000
cgC 	C 	0.221780	0.765500	0.612840	0.036000
cgN 	N 	0.227600	0.784550	0.580150	-0.115000
cgC 	C 	0.214680	0.793510	0.574860	0.088000
cgC 	C 	0.195130	0.784160	0.652660	-0.073000
cgC 	C 	0.183480	0.793880	0.649350	-0.017000
cgC 	C 	0.190930	0.813050	0.566490	-0.016000
cgC 	C 	0.210520	0.822250	0.488570	-0.017000
cgC 	C 	0.222300	0.812690	0.495210	-0.071000
cgC 	C 	0.178470	0.823470	0.563510	0.037000
cgC 	C 	0.156940	0.811970	0.563180	-0.081000
cgO 	O 	0.234450	0.707230	0.635960	-0.184000
cgH 	H 	0.212440	0.726820	0.616360	0.055000
cgH 	H 	0.189030	0.769770	0.722250	0.056000
cgH 	H 	0.168930	0.786590	0.717610	0.031000
cgH 	H 	0.216700	0.836650	0.418730	0.032000
cgH 	H 	0.237340	0.820090	0.434810	0.056000
cgH 	H 	0.149430	0.795460	0.563620	0.051000
cgH 	H 	0.205720	0.754430	0.630880	0.027000
cgC 	C 	0.214370	0.694610	0.706460	-0.033000
cgH 	H 	0.212220	0.679240	0.735800	0.054000
cgH 	H 	0.202410	0.692660	0.610850	0.044000
cgH 	H 	0.212490	0.701290	0.830050	0.047000
cgC 	C 	0.271490	0.513450	0.623600	0.116000
cgC 	C 	0.263170	0.992040	0.618800	-0.083000
cgC 	C 	0.241940	0.978590	0.616600	-0.021000
cgC 	C 	0.234500	0.956290	0.612840	0.033000
cgN 	N 	0.215450	0.943050	0.580150	-0.114000
cgC 	C 	0.206490	0.921170	0.574860	0.084000
cgC 	C 	0.215840	0.910970	0.652660	-0.075000
cgC 	C 	0.206120	0.889600	0.649350	-0.018000
cgC 	C 	0.186950	0.877880	0.566490	-0.016000
cgC 	C 	0.177750	0.888270	0.488570	-0.019000
cgC 	C 	0.187310	0.909620	0.495210	-0.071000
cgC 	C 	0.176530	0.855000	0.563510	0.037000
cgC 	C 	0.188030	0.844970	0.563180	-0.080000
cgO 	O 	0.292770	0.527220	0.635960	-0.186000
cgH 	H 	0.273180	0.985620	0.616360	0.049000
cgH 	H 	0.230230	0.919260	0.722250	0.047000
cgH 	H 	0.213410	0.882340	0.717610	0.031000
cgH 	H 	0.163350	0.880050	0.418730	0.033000
cgH 	H 	0.179910	0.917250	0.434810	0.061000
cgH 	H 	0.204540	0.853970	0.563620	0.048000
cgH 	H 	0.245570	0.951290	0.630880	0.018000
cgC 	C 	0.305390	0.519760	0.706460	-0.028000
cgH 	H 	0.320760	0.532990	0.735800	0.042000
cgH 	H 	0.307340	0.509760	0.610850	0.035000
cgH 	H 	0.298710	0.511200	0.830050	0.038000
cgC 	C 	0.486550	0.758030	0.623600	0.114000
cgC 	C 	0.007960	0.771130	0.618800	-0.084000
cgC 	C 	0.021410	0.763350	0.616600	-0.019000
cgC 	C 	0.043720	0.778220	0.612840	0.038000
cgN 	N 	0.056950	0.772400	0.580150	-0.114000
cgC 	C 	0.078830	0.785320	0.574860	0.083000
cgC 	C 	0.089030	0.804880	0.652660	-0.071000
cgC 	C 	0.110400	0.816530	0.649350	-0.018000
cgC 	C 	0.122130	0.809070	0.566490	-0.013000
cgC 	C 	0.111730	0.789480	0.488570	-0.018000
cgC 	C 	0.090390	0.777700	0.495210	-0.067000
cgC 	C 	0.145010	0.821540	0.563510	0.037000
cgC 	C 	0.155030	0.843060	0.563180	-0.081000
cgO 	O 	0.472780	0.765550	0.635960	-0.188000
cgH 	H 	0.014390	0.787560	0.616360	0.050000
cgH 	H 	0.080740	0.810980	0.722250	0.045000
cgH 	H 	0.117660	0.831080	0.717610	0.035000
cgH 	H 	0.119950	0.783300	0.418730	0.036000
cgH 	H 	0.082760	0.762660	0.434810	0.056000
cgH 	H 	0.146030	0.850580	0.563620	0.052000
cgH 	H 	0.048710	0.794280	0.630880	0.018000
cgC 	C 	0.480240	0.785630	0.706460	-0.028000
cgH 	H 	0.467020	0.787780	0.735800	0.040000
cgH 	H 	0.490250	0.797590	0.610850	0.034000
cgH 	H 	0.488810	0.787510	0.830050	0.035000
cgC 	C 	0.258030	0.771490	0.623600	0.113000
cgC 	C 	0.271130	0.763170	0.618800	-0.083000
cgC 	C 	0.263350	0.741940	0.616600	-0.020000
cgC 	C 	0.278220	0.734500	0.612840	0.037000
cgN 	N 	0.272400	0.715450	0.580150	-0.114000
cgC 	C 	0.285320	0.706490	0.574860	0.085000
cgC 	C 	0.304870	0.715840	0.652660	-0.074000
cgC 	C 	0.316520	0.706120	0.649350	-0.020000
cgC 	C 	0.309070	0.686950	0.566490	-0.017000
cgC 	C 	0.289480	0.677750	0.488570	-0.020000
cgC 	C 	0.277700	0.687310	0.495210	-0.071000
cgC 	C 	0.321530	0.676530	0.563510	0.037000
cgC 	C 	0.343060	0.688030	0.563180	-0.078000
cgO 	O 	0.265550	0.792780	0.635960	-0.187000
cgH 	H 	0.287560	0.773180	0.616360	0.051000
cgH 	H 	0.310970	0.730230	0.722250	0.048000
cgH 	H 	0.331080	0.713410	0.717610	0.030000
cgH 	H 	0.283300	0.663350	0.418730	0.034000
cgH 	H 	0.262660	0.679910	0.434810	0.055000
cgH 	H 	0.350570	0.704540	0.563620	0.048000
cgH 	H 	0.294280	0.745570	0.630880	0.019000
cgC 	C 	0.285630	0.805390	0.706460	-0.029000
cgH 	H 	0.287780	0.820760	0.735800	0.042000
cgH 	H 	0.297590	0.807340	0.610850	0.035000
cgH 	H 	0.287510	0.798710	0.830050	0.037000
cgC 	C 	0.228510	0.986550	0.623600	0.121000
cgC 	C 	0.236830	0.507960	0.618800	-0.075000
cgC 	C 	0.258060	0.521410	0.616600	-0.016000
cgC 	C 	0.265500	0.543720	0.612840	0.037000
cgN 	N 	0.284550	0.556950	0.580150	-0.113000
cgC 	C 	0.293510	0.578830	0.574860	0.085000
cgC 	C 	0.284160	0.589030	0.652660	-0.075000
cgC 	C 	0.293880	0.610400	0.649350	-0.019000
cgC 	C 	0.313050	0.622130	0.566490	-0.016000
cgC 	C 	0.322250	0.611730	0.488570	-0.020000
cgC 	C 	0.312690	0.590390	0.495210	-0.071000
cgC 	C 	0.323470	0.645010	0.563510	0.039000
cgC 	C 	0.311970	0.655030	0.563180	-0.077000
cgO 	O 	0.207230	0.972780	0.635960	-0.180000
cgH 	H 	0.226820	0.514390	0.616360	0.056000
cgH 	H 	0.269770	0.580740	0.722250	0.047000
cgH 	H 	0.286590	0.617660	0.717610	0.036000
cgH 	H 	0.336650	0.619950	0.418730	0.029000
cgH 	H 	0.320090	0.582760	0.434810	0.056000
cgH 	H 	0.295460	0.646030	0.563620	0.051000
cgH 	H 	0.254430	0.548710	0.630880	0.023000
cgC 	C 	0.194610	0.980240	0.706460	-0.033000
cgH 	H 	0.179240	0.967020	0.735800	0.049000
cgH 	H 	0.192660	0.990250	0.610850	0.039000
cgH 	H 	0.201290	0.988810	0.830050	0.050000
cgC 	C 	0.013450	0.741970	0.623600	0.119000
cgC 	C 	0.492040	0.728870	0.618800	-0.077000
cgC 	C 	0.478590	0.736650	0.616600	-0.015000
cgC 	C 	0.456280	0.721780	0.612840	0.042000
cgN 	N 	0.443050	0.727600	0.580150	-0.113000
cgC 	C 	0.421170	0.714680	0.574860	0.085000
cgC 	C 	0.410970	0.695130	0.652660	-0.069000
cgC 	C 	0.389600	0.683480	0.649350	-0.014000
cgC 	C 	0.377870	0.690930	0.566490	-0.011000
cgC 	C 	0.388270	0.710520	0.488570	-0.013000
cgC 	C 	0.409620	0.722300	0.495210	-0.054000
cgC 	C 	0.354990	0.678470	0.563510	0.040000
cgC 	C 	0.344970	0.656940	0.563180	-0.076000
cgO 	O 	0.027220	0.734450	0.635960	-0.187000
cgH 	H 	0.485620	0.712440	0.616360	0.058000
cgH 	H 	0.419260	0.689030	0.722250	0.050000
cgH 	H 	0.382340	0.668930	0.717610	0.033000
cgH 	H 	0.380050	0.716700	0.418730	0.039000
cgH 	H 	0.417250	0.737340	0.434810	0.047000
cgH 	H 	0.353970	0.649430	0.563620	0.047000
cgH 	H 	0.451290	0.705720	0.630880	0.024000
cgC 	C 	0.019760	0.714370	0.706460	-0.022000
cgH 	H 	0.032980	0.712220	0.735800	0.037000
cgH 	H 	0.009750	0.702410	0.610850	0.038000
cgH 	H 	0.011190	0.712490	0.830050	0.025000
cgC 	C 	0.677980	0.686610	0.119750	0.113000
cgC 	C 	0.664890	0.694930	0.114950	-0.083000
cgC 	C 	0.672670	0.716160	0.112750	-0.020000
cgC 	C 	0.657800	0.723600	0.108990	0.038000
cgN 	N 	0.663620	0.742650	0.076310	-0.114000
cgC 	C 	0.650700	0.751610	0.071010	0.085000
cgC 	C 	0.631140	0.742260	0.148810	-0.074000
cgC 	C 	0.619490	0.751980	0.145500	-0.019000
cgC 	C 	0.626940	0.771150	0.062640	-0.016000
cgC 	C 	0.646530	0.780350	-0.015280	-0.019000
cgC 	C 	0.658320	0.770790	-0.008640	-0.071000
cgC 	C 	0.614480	0.781570	0.059660	0.037000
cgC 	C 	0.592960	0.770070	0.059340	-0.077000
cgO 	O 	0.670460	0.665330	0.132110	-0.187000
cgH 	H 	0.648450	0.684920	0.112510	0.051000
cgH 	H 	0.625040	0.727870	0.218410	0.048000
cgH 	H 	0.604940	0.744690	0.213760	0.031000
cgH 	H 	0.652710	0.794750	-0.085120	0.034000
cgH 	H 	0.673350	0.778190	-0.069040	0.056000
cgH 	H 	0.585440	0.753560	0.059770	0.049000
cgH 	H 	0.641740	0.712530	0.127030	0.020000
cgC 	C 	0.650390	0.652710	0.202610	-0.028000
cgH 	H 	0.648240	0.637340	0.231950	0.042000
cgH 	H 	0.638430	0.650760	0.107000	0.036000
cgH 	H 	0.648500	0.659390	0.326200	0.037000
cgC 	C 	0.707510	0.971560	0.119750	0.121000
cgC 	C 	0.699190	0.950140	0.114950	-0.075000
cgC 	C 	0.677960	0.936690	0.112750	-0.016000
cgC 	C 	0.670520	0.914390	0.108990	0.038000
cgN 	N 	0.651470	0.901150	0.076310	-0.113000
cgC 	C 	0.642510	0.879270	0.071010	0.086000
cgC 	C 	0.651860	0.869070	0.148810	-0.074000
cgC 	C 	0.642140	0.847700	0.145500	-0.018000
cgC 	C 	0.622970	0.835980	0.062640	-0.015000
cgC 	C 	0.613770	0.846370	-0.015280	-0.020000
cgC 	C 	0.623330	0.867720	-0.008640	-0.070000
cgC 	C 	0.612550	0.813100	0.059660	0.039000
cgC 	C 	0.624050	0.803070	0.059340	-0.077000
cgO 	O 	0.728790	0.985320	0.132110	-0.180000
cgH 	H 	0.709200	0.943720	0.112510	0.056000
cgH 	H 	0.666250	0.877360	0.218410	0.048000
cgH 	H 	0.649430	0.840440	0.213760	0.036000
cgH 	H 	0.599370	0.838150	-0.085120	0.030000
cgH 	H 	0.615930	0.875350	-0.069040	0.057000
cgH 	H 	0.640560	0.812070	0.059770	0.051000
cgH 	H 	0.681590	0.909390	0.127030	0.023000
cgC 	C 	0.741410	0.977860	0.202610	-0.034000
cgH 	H 	0.756780	0.991090	0.231950	0.050000
cgH 	H 	0.743360	0.967860	0.107000	0.041000
cgH 	H 	0.734730	0.969300	0.326200	0.051000
cgC 	C 	0.922560	0.716140	0.119750	0.120000
cgC 	C 	0.943980	0.729230	0.114950	-0.076000
cgC 	C 	0.957430	0.721450	0.112750	-0.015000
cgC 	C 	0.979730	0.736320	0.108990	0.043000
cgN 	N 	0.992970	0.730500	0.076310	-0.113000
cgC 	C 	0.514850	0.743420	0.071010	0.086000
cgC 	C 	0.525050	0.762980	0.148810	-0.068000
cgC 	C 	0.546420	0.774630	0.145500	-0.014000
cgC 	C 	0.558140	0.767180	0.062640	-0.011000
cgC 	C 	0.547750	0.747590	-0.015280	-0.012000
cgC 	C 	0.526400	0.735800	-0.008640	-0.053000
cgC 	C 	0.581020	0.779640	0.059660	0.041000
cgC 	C 	0.591050	0.801160	0.059340	-0.076000
cgO 	O 	0.908800	0.723660	0.132110	-0.186000
cgH 	H 	0.950400	0.745670	0.112510	0.058000
cgH 	H 	0.516760	0.769080	0.218410	0.051000
cgH 	H 	0.553680	0.789180	0.213760	0.034000
cgH 	H 	0.555970	0.741410	-0.085120	0.040000
cgH 	H 	0.518770	0.720770	-0.069040	0.049000
cgH 	H 	0.582050	0.808680	0.059770	0.048000
cgH 	H 	0.984730	0.752380	0.127030	0.024000
cgC 	C 	0.916260	0.743730	0.202610	-0.023000
cgH 	H 	0.903030	0.745880	0.231950	0.038000
cgH 	H 	0.926260	0.755690	0.107000	0.038000
cgH 	H 	0.924820	0.745620	0.326200	0.029000
cgC 	C 	0.694050	0.729590	0.119750	0.114000
cgC 	C 	0.707150	0.721270	0.114950	-0.083000
cgC 	C 	0.699370	0.700040	0.112750	-0.021000
cgC 	C 	0.714240	0.692610	0.108990	0.037000
cgN 	N 	0.708420	0.673550	0.076310	-0.115000
cgC 	C 	0.721340	0.664590	0.071010	0.088000
cgC 	C 	0.740890	0.673950	0.148810	-0.073000
cgC 	C 	0.752540	0.664230	0.145500	-0.016000
cgC 	C 	0.745090	0.645050	0.062640	-0.015000
cgC 	C 	0.725500	0.635860	-0.015280	-0.017000
cgC 	C 	0.713720	0.645420	-0.008640	-0.071000
cgC 	C 	0.757550	0.634630	0.059660	0.038000
cgC 	C 	0.779080	0.646130	0.059340	-0.080000
cgO 	O 	0.701570	0.750880	0.132110	-0.183000
cgH 	H 	0.723580	0.731280	0.112510	0.056000
cgH 	H 	0.746990	0.688340	0.218410	0.057000
cgH 	H 	0.767090	0.671520	0.213760	0.032000
cgH 	H 	0.719320	0.621460	-0.085120	0.033000
cgH 	H 	0.698680	0.638010	-0.069040	0.056000
cgH 	H 	0.786590	0.662650	0.059770	0.051000
cgH 	H 	0.730300	0.703670	0.127030	0.028000
cgC 	C 	0.721650	0.763490	0.202610	-0.033000
cgH 	H 	0.723800	0.778870	0.231950	0.055000
cgH 	H 	0.733610	0.765450	0.107000	0.045000
cgH 	H 	0.723530	0.756810	0.326200	0.048000
cgC 	C 	0.664530	0.944650	0.119750	0.116000
cgC 	C 	0.672850	0.966060	0.114950	-0.082000
cgC 	C 	0.694080	0.979510	0.112750	-0.021000
cgC 	C 	0.701510	0.501820	0.108990	0.033000
cgN 	N 	0.720570	0.515050	0.076310	-0.114000
cgC 	C 	0.729530	0.536930	0.071010	0.085000
cgC 	C 	0.720170	0.547130	0.148810	-0.074000
cgC 	C 	0.729890	0.568500	0.145500	-0.018000
cgC 	C 	0.749070	0.580230	0.062640	-0.016000
cgC 	C 	0.758260	0.569830	-0.015280	-0.019000
cgC 	C 	0.748700	0.548490	-0.008640	-0.071000
cgC 	C 	0.759490	0.603110	0.059660	0.038000
cgC 	C 	0.747990	0.613130	0.059340	-0.080000
cgO 	O 	0.643240	0.930880	0.132110	-0.185000
cgH 	H 	0.662840	0.972490	0.112510	0.049000
cgH 	H 	0.705780	0.538840	0.218410	0.047000
cgH 	H 	0.722600	0.575760	0.213760	0.031000
cgH 	H 	0.772660	0.578050	-0.085120	0.034000
cgH 	H 	0.756110	0.540860	-0.069040	0.062000
cgH 	H 	0.731470	0.604130	0.059770	0.049000
cgH 	H 	0.690450	0.506810	0.127030	0.018000
cgC 	C 	0.630630	0.938340	0.202610	-0.028000
cgH 	H 	0.615250	0.925120	0.231950	0.042000
cgH 	H 	0.628670	0.948350	0.107000	0.035000
cgH 	H 	0.637310	0.946910	0.326200	0.038000
cgC 	C 	0.949470	0.700070	0.119750	0.114000
cgC 	C 	0.928060	0.686970	0.114950	-0.083000
cgC 	C 	0.914610	0.694750	0.112750	-0.019000
cgC 	C 	0.892300	0.679880	0.108990	0.038000
cgN 	N 	0.879070	0.685700	0.076310	-0.113000
cgC 	C 	0.857190	0.672780	0.071010	0.084000
cgC 	C 	0.846990	0.653230	0.148810	-0.070000
cgC 	C 	0.825620	0.641580	0.145500	-0.018000
cgC 	C 	0.813890	0.649030	0.062640	-0.013000
cgC 	C 	0.824290	0.668620	-0.015280	-0.017000
cgC 	C 	0.845630	0.680400	-0.008640	-0.067000
cgC 	C 	0.791010	0.636570	0.059660	0.038000
cgC 	C 	0.780990	0.615040	0.059340	-0.081000
cgO 	O 	0.963240	0.692550	0.132110	-0.187000
cgH 	H 	0.921630	0.670540	0.112510	0.050000
cgH 	H 	0.855280	0.647130	0.218410	0.046000
cgH 	H 	0.818360	0.627030	0.213760	0.036000
cgH 	H 	0.816070	0.674800	-0.085120	0.037000
cgH 	H 	0.853260	0.695440	-0.069040	0.057000
cgH 	H 	0.789990	0.607530	0.059770	0.053000
cgH 	H 	0.887310	0.663820	0.127030	0.018000
cgC 	C 	0.955780	0.672470	0.202610	-0.028000
cgH 	H 	0.969000	0.670320	0.231950	0.041000
cgH 	H 	0.945770	0.660510	0.107000	0.034000
cgH 	H 	0.947210	0.670590	0.326200	0.036000
cgC 	C 	0.741970	0.728510	0.623600	0.114000
cgC 	C 	0.728870	0.736830	0.618800	-0.084000
cgC 	C 	0.736650	0.758060	0.616600	-0.022000
cgC 	C 	0.721780	0.765500	0.612840	0.036000
cgN 	N 	0.727600	0.784550	0.580150	-0.115000
cgC 	C 	0.714680	0.793510	0.574860	0.088000
cgC 	C 	0.695130	0.784160	0.652660	-0.073000
cgC 	C 	0.683480	0.793880	0.649350	-0.017000
cgC 	C 	0.690930	0.813050	0.566490	-0.016000
cgC 	C 	0.710520	0.822250	0.488570	-0.017000
cgC 	C 	0.722300	0.812690	0.495210	-0.071000
cgC 	C 	0.678470	0.823470	0.563510	0.037000
cgC 	C 	0.656940	0.811970	0.563180	-0.081000
cgO 	O 	0.734450	0.707230	0.635960	-0.184000
cgH 	H 	0.712440	0.726820	0.616360	0.055000
cgH 	H 	0.689030	0.769770	0.722250	0.056000
cgH 	H 	0.668930	0.786590	0.717610	0.031000
cgH 	H 	0.716700	0.836650	0.418730	0.032000
cgH 	H 	0.737340	0.820090	0.434810	0.056000
cgH 	H 	0.649430	0.795460	0.563620	0.051000
cgH 	H 	0.705720	0.754430	0.630880	0.027000
cgC 	C 	0.714370	0.694610	0.706460	-0.033000
cgH 	H 	0.712220	0.679240	0.735800	0.054000
cgH 	H 	0.702410	0.692660	0.610850	0.044000
cgH 	H 	0.712490	0.701290	0.830050	0.047000
cgC 	C 	0.771490	0.513450	0.623600	0.116000
cgC 	C 	0.763170	0.992040	0.618800	-0.083000
cgC 	C 	0.741940	0.978590	0.616600	-0.021000
cgC 	C 	0.734500	0.956290	0.612840	0.033000
cgN 	N 	0.715450	0.943050	0.580150	-0.114000
cgC 	C 	0.706490	0.921170	0.574860	0.084000
cgC 	C 	0.715840	0.910970	0.652660	-0.075000
cgC 	C 	0.706120	0.889600	0.649350	-0.018000
cgC 	C 	0.686950	0.877880	0.566490	-0.016000
cgC 	C 	0.677750	0.888270	0.488570	-0.019000
cgC 	C 	0.687310	0.909620	0.495210	-0.071000
cgC 	C 	0.676530	0.855000	0.563510	0.037000
cgC 	C 	0.688030	0.844970	0.563180	-0.080000
cgO 	O 	0.792770	0.527220	0.635960	-0.186000
cgH 	H 	0.773180	0.985620	0.616360	0.049000
cgH 	H 	0.730230	0.919260	0.722250	0.047000
cgH 	H 	0.713410	0.882340	0.717610	0.031000
cgH 	H 	0.663350	0.880050	0.418730	0.033000
cgH 	H 	0.679910	0.917250	0.434810	0.061000
cgH 	H 	0.704540	0.853970	0.563620	0.048000
cgH 	H 	0.745570	0.951290	0.630880	0.018000
cgC 	C 	0.805390	0.519760	0.706460	-0.028000
cgH 	H 	0.820760	0.532990	0.735800	0.042000
cgH 	H 	0.807340	0.509760	0.610850	0.035000
cgH 	H 	0.798710	0.511200	0.830050	0.038000
cgC 	C 	0.986550	0.758030	0.623600	0.114000
cgC 	C 	0.507960	0.771130	0.618800	-0.084000
cgC 	C 	0.521410	0.763350	0.616600	-0.019000
cgC 	C 	0.543720	0.778220	0.612840	0.038000
cgN 	N 	0.556950	0.772400	0.580150	-0.114000
cgC 	C 	0.578830	0.785320	0.574860	0.083000
cgC 	C 	0.589030	0.804880	0.652660	-0.071000
cgC 	C 	0.610400	0.816520	0.649350	-0.018000
cgC 	C 	0.622130	0.809070	0.566490	-0.013000
cgC 	C 	0.611730	0.789480	0.488570	-0.018000
cgC 	C 	0.590390	0.777700	0.495210	-0.067000
cgC 	C 	0.645010	0.821540	0.563510	0.037000
cgC 	C 	0.655030	0.843060	0.563180	-0.081000
cgO 	O 	0.972780	0.765550	0.635960	-0.188000
cgH 	H 	0.514390	0.787560	0.616360	0.050000
cgH 	H 	0.580740	0.810980	0.722250	0.045000
cgH 	H 	0.617660	0.831080	0.717610	0.035000
cgH 	H 	0.619950	0.783300	0.418730	0.036000
cgH 	H 	0.582760	0.762660	0.434810	0.056000
cgH 	H 	0.646030	0.850580	0.563620	0.052000
cgH 	H 	0.548710	0.794280	0.630880	0.018000
cgC 	C 	0.980240	0.785630	0.706460	-0.028000
cgH 	H 	0.967020	0.787780	0.735800	0.040000
cgH 	H 	0.990250	0.797590	0.610850	0.034000
cgH 	H 	0.988810	0.787510	0.830050	0.035000
cgC 	C 	0.758030	0.771490	0.623600	0.113000
cgC 	C 	0.771130	0.763170	0.618800	-0.083000
cgC 	C 	0.763350	0.741940	0.616600	-0.020000
cgC 	C 	0.778220	0.734500	0.612840	0.037000
cgN 	N 	0.772400	0.715450	0.580150	-0.114000
cgC 	C 	0.785320	0.706490	0.574860	0.085000
cgC 	C 	0.804870	0.715840	0.652660	-0.074000
cgC 	C 	0.816520	0.706120	0.649350	-0.020000
cgC 	C 	0.809070	0.686950	0.566490	-0.017000
cgC 	C 	0.789480	0.677750	0.488570	-0.020000
cgC 	C 	0.777700	0.687310	0.495210	-0.071000
cgC 	C 	0.821540	0.676530	0.563510	0.037000
cgC 	C 	0.843060	0.688030	0.563180	-0.078000
cgO 	O 	0.765550	0.792780	0.635960	-0.187000
cgH 	H 	0.787560	0.773180	0.616360	0.051000
cgH 	H 	0.810980	0.730230	0.722250	0.048000
cgH 	H 	0.831080	0.713410	0.717610	0.030000
cgH 	H 	0.783300	0.663350	0.418730	0.034000
cgH 	H 	0.762660	0.679910	0.434810	0.055000
cgH 	H 	0.850570	0.704540	0.563620	0.048000
cgH 	H 	0.794280	0.745570	0.630880	0.019000
cgC 	C 	0.785630	0.805390	0.706460	-0.028000
cgH 	H 	0.787780	0.820770	0.735800	0.042000
cgH 	H 	0.797590	0.807340	0.610850	0.035000
cgH 	H 	0.787510	0.798710	0.830050	0.037000
cgC 	C 	0.728510	0.986550	0.623600	0.121000
cgC 	C 	0.736830	0.507960	0.618800	-0.075000
cgC 	C 	0.758060	0.521410	0.616600	-0.016000
cgC 	C 	0.765500	0.543720	0.612840	0.037000
cgN 	N 	0.784550	0.556950	0.580150	-0.113000
cgC 	C 	0.793510	0.578830	0.574860	0.085000
cgC 	C 	0.784160	0.589030	0.652660	-0.075000
cgC 	C 	0.793880	0.610400	0.649350	-0.019000
cgC 	C 	0.813050	0.622130	0.566490	-0.016000
cgC 	C 	0.822250	0.611730	0.488570	-0.020000
cgC 	C 	0.812690	0.590390	0.495210	-0.071000
cgC 	C 	0.823470	0.645010	0.563510	0.039000
cgC 	C 	0.811970	0.655030	0.563180	-0.077000
cgO 	O 	0.707230	0.972780	0.635960	-0.180000
cgH 	H 	0.726820	0.514390	0.616360	0.056000
cgH 	H 	0.769770	0.580740	0.722250	0.047000
cgH 	H 	0.786590	0.617660	0.717610	0.036000
cgH 	H 	0.836650	0.619950	0.418730	0.029000
cgH 	H 	0.820090	0.582760	0.434810	0.056000
cgH 	H 	0.795460	0.646030	0.563620	0.051000
cgH 	H 	0.754430	0.548710	0.630880	0.023000
cgC 	C 	0.694610	0.980240	0.706460	-0.033000
cgH 	H 	0.679240	0.967020	0.735800	0.049000
cgH 	H 	0.692660	0.990250	0.610850	0.039000
cgH 	H 	0.701290	0.988810	0.830050	0.050000
cgC 	C 	0.513460	0.741970	0.623600	0.119000
cgC 	C 	0.992040	0.728870	0.618800	-0.077000
cgC 	C 	0.978590	0.736650	0.616600	-0.015000
cgC 	C 	0.956290	0.721780	0.612840	0.042000
cgN 	N 	0.943050	0.727600	0.580150	-0.113000
cgC 	C 	0.921170	0.714680	0.574860	0.085000
cgC 	C 	0.910970	0.695130	0.652660	-0.069000
cgC 	C 	0.889600	0.683480	0.649350	-0.014000
cgC 	C 	0.877870	0.690930	0.566490	-0.011000
cgC 	C 	0.888270	0.710520	0.488570	-0.013000
cgC 	C 	0.909620	0.722300	0.495210	-0.054000
cgC 	C 	0.854990	0.678470	0.563510	0.040000
cgC 	C 	0.844970	0.656940	0.563180	-0.076000
cgO 	O 	0.527220	0.734450	0.635960	-0.187000
cgH 	H 	0.985620	0.712440	0.616360	0.058000
cgH 	H 	0.919260	0.689030	0.722250	0.050000
cgH 	H 	0.882340	0.668930	0.717610	0.033000
cgH 	H 	0.880050	0.716700	0.418730	0.039000
cgH 	H 	0.917250	0.737340	0.434810	0.047000
cgH 	H 	0.853970	0.649430	0.563620	0.047000
cgH 	H 	0.951290	0.705720	0.630880	0.024000
cgC 	C 	0.519760	0.714370	0.706460	-0.022000
cgH 	H 	0.532990	0.712220	0.735800	0.037000
cgH 	H 	0.509750	0.702410	0.610850	0.038000
cgH 	H 	0.511190	0.712490	0.830050	0.025000
_end
