data_functionalizedCrystal
_audit_creation_method	'EQeq! by Chris Wilmer'
_symmetry_space_group_name_H-M	'P1'
_symmetry_Int_Tables_number	1
_symmetry_cell_setting	triclinic
loop_
_symmetry_equiv_pos_as_xyz
x,y,z
_cell_length_a	75.370200
_cell_length_b	75.370200
_cell_length_c	7.578600
_cell_angle_alpha	90.000000
_cell_angle_beta	90.000000
_cell_angle_gamma	120.000000
loop_
_atom_site_label
_atom_site_type_symbol
_atom_site_fract_x
_atom_site_fract_y
_atom_site_fract_z
_atom_site_charge
C1	C	0.241970	0.228510	0.123590	0.115000
C2	C	0.228870	0.236830	0.118800	-0.073000
C3	C	0.236650	0.258060	0.116600	-0.020000
C4	C	0.221780	0.265500	0.112840	0.042000
N5	N	0.227600	0.284550	0.080150	-0.112000
C6	C	0.214680	0.293510	0.074860	0.080000
C7	C	0.195130	0.284160	0.152650	-0.065000
C8	C	0.183480	0.293880	0.149350	-0.018000
C9	C	0.190930	0.313050	0.066480	-0.013000
C10	C	0.210520	0.322250	-0.011440	-0.018000
C11	C	0.222300	0.312690	-0.004790	-0.061000
C12	C	0.178470	0.323470	0.063500	0.029000
C13	C	0.156940	0.311970	0.063190	-0.065000
O14	O	0.234450	0.207230	0.135960	-0.186000
C15	C	0.214370	0.194610	0.206460	-0.019000
C16	C	0.271490	0.013450	0.123590	0.117000
C17	C	0.263170	0.492040	0.118800	-0.069000
C18	C	0.241940	0.478590	0.116600	-0.019000
C19	C	0.234510	0.456290	0.112840	0.040000
N20	N	0.215450	0.443050	0.080150	-0.114000
C21	C	0.206490	0.421170	0.074860	0.077000
C22	C	0.215850	0.410970	0.152650	-0.066000
C23	C	0.206130	0.389600	0.149350	-0.019000
C24	C	0.186950	0.377870	0.066480	-0.013000
C25	C	0.177760	0.388270	-0.011440	-0.019000
C26	C	0.187320	0.409620	-0.004790	-0.061000
C27	C	0.176530	0.355000	0.063500	0.029000
C28	C	0.188030	0.344970	0.063190	-0.065000
O29	O	0.292780	0.027220	0.135960	-0.185000
C30	C	0.305390	0.019760	0.206460	-0.021000
C31	C	0.486550	0.258040	0.123590	0.114000
C32	C	0.007960	0.271130	0.118800	-0.069000
C33	C	0.021410	0.263350	0.116600	-0.016000
C34	C	0.043720	0.278220	0.112840	0.049000
N35	N	0.056950	0.272400	0.080150	-0.116000
C36	C	0.078830	0.285320	0.074860	0.077000
C37	C	0.089030	0.304880	0.152650	-0.062000
C38	C	0.110400	0.316530	0.149350	-0.019000
C39	C	0.122130	0.309080	0.066480	-0.013000
C40	C	0.111730	0.289490	-0.011440	-0.018000
C41	C	0.090380	0.277700	-0.004790	-0.064000
C42	C	0.145010	0.321540	0.063500	0.029000
C43	C	0.155030	0.343060	0.063190	-0.065000
O44	O	0.472790	0.265560	0.135960	-0.189000
C45	C	0.480240	0.285630	0.206460	-0.019000
C46	C	0.258040	0.271490	0.123590	0.115000
C47	C	0.271130	0.263170	0.118800	-0.073000
C48	C	0.263350	0.241940	0.116600	-0.020000
C49	C	0.278220	0.234510	0.112840	0.042000
N50	N	0.272400	0.215450	0.080150	-0.112000
C51	C	0.285320	0.206490	0.074860	0.080000
C52	C	0.304880	0.215850	0.152650	-0.065000
C53	C	0.316530	0.206130	0.149350	-0.018000
C54	C	0.309080	0.186950	0.066480	-0.013000
C55	C	0.289480	0.177760	-0.011440	-0.018000
C56	C	0.277700	0.187320	-0.004790	-0.061000
C57	C	0.321540	0.176530	0.063500	0.029000
C58	C	0.343060	0.188030	0.063190	-0.065000
O59	O	0.265550	0.292780	0.135960	-0.186000
C60	C	0.285630	0.305390	0.206460	-0.018000
C61	C	0.228510	0.486550	0.123590	0.117000
C62	C	0.236830	0.007960	0.118800	-0.070000
C63	C	0.258060	0.021410	0.116600	-0.021000
C64	C	0.265500	0.043710	0.112840	0.039000
N65	N	0.284550	0.056950	0.080150	-0.114000
C66	C	0.293510	0.078830	0.074860	0.078000
C67	C	0.284160	0.089030	0.152650	-0.065000
C68	C	0.293880	0.110400	0.149350	-0.019000
C69	C	0.313050	0.122130	0.066480	-0.013000
C70	C	0.322250	0.111730	-0.011440	-0.019000
C71	C	0.312690	0.090390	-0.004790	-0.061000
C72	C	0.323470	0.145010	0.063500	0.029000
C73	C	0.311970	0.155030	0.063190	-0.065000
O74	O	0.207230	0.472790	0.135960	-0.182000
C75	C	0.194610	0.480240	0.206460	-0.023000
C76	C	0.013450	0.241970	0.123590	0.115000
C77	C	0.492040	0.228870	0.118800	-0.070000
C78	C	0.478590	0.236650	0.116600	-0.018000
C79	C	0.456290	0.221780	0.112840	0.047000
N80	N	0.443050	0.227600	0.080150	-0.116000
C81	C	0.421170	0.214680	0.074860	0.076000
C82	C	0.410970	0.195130	0.152650	-0.063000
C83	C	0.389600	0.183480	0.149350	-0.018000
C84	C	0.377870	0.190930	0.066480	-0.013000
C85	C	0.388270	0.210520	-0.011440	-0.019000
C86	C	0.409620	0.222300	-0.004790	-0.065000
C87	C	0.355000	0.178460	0.063500	0.029000
C88	C	0.344970	0.156940	0.063190	-0.065000
O89	O	0.027210	0.234450	0.135960	-0.189000
C90	C	0.019760	0.214370	0.206460	-0.019000
C91	C	0.488690	0.472390	0.617610	0.114000
C92	C	0.475600	0.480710	0.612810	-0.073000
C93	C	0.483380	0.001940	0.610610	-0.020000
C94	C	0.468510	0.009370	0.606850	0.042000
N95	N	0.474330	0.028430	0.574170	-0.113000
C96	C	0.461410	0.037380	0.568870	0.080000
C97	C	0.441850	0.028030	0.646670	-0.065000
C98	C	0.430200	0.037750	0.643360	-0.018000
C99	C	0.437650	0.056930	0.560500	-0.013000
C100	C	0.457240	0.066120	0.482580	-0.018000
C101	C	0.469030	0.056560	0.489230	-0.061000
C102	C	0.425190	0.067350	0.557520	0.029000
C103	C	0.403670	0.055840	0.557200	-0.065000
O104	O	0.481170	0.451100	0.629970	-0.186000
C105	C	0.461100	0.438490	0.700480	-0.019000
C106	C	0.018220	0.257330	0.617610	0.117000
C107	C	0.009900	0.235910	0.612810	-0.070000
C108	C	0.488670	0.222460	0.610610	-0.022000
C109	C	0.481230	0.200160	0.606850	0.038000
N110	N	0.462180	0.186930	0.574170	-0.115000
C111	C	0.453220	0.165050	0.568870	0.077000
C112	C	0.462570	0.154850	0.646670	-0.065000
C113	C	0.452850	0.133480	0.643360	-0.019000
C114	C	0.433680	0.121750	0.560500	-0.013000
C115	C	0.424480	0.132150	0.482580	-0.020000
C116	C	0.434040	0.153490	0.489230	-0.061000
C117	C	0.423260	0.098870	0.557520	0.029000
C118	C	0.434760	0.088850	0.557200	-0.065000
O119	O	0.039500	0.271090	0.629970	-0.183000
C120	C	0.052120	0.263640	0.700480	-0.022000
C121	C	0.233270	0.001910	0.617610	0.114000
C122	C	0.254690	0.015010	0.612810	-0.071000
C123	C	0.268140	0.007230	0.610610	-0.018000
C124	C	0.290440	0.022100	0.606850	0.046000
N125	N	0.303680	0.016280	0.574170	-0.117000
C126	C	0.325560	0.029200	0.568870	0.074000
C127	C	0.335760	0.048750	0.646670	-0.063000
C128	C	0.357130	0.060400	0.643360	-0.019000
C129	C	0.368850	0.052950	0.560500	-0.013000
C130	C	0.358460	0.033360	0.482580	-0.019000
C131	C	0.337110	0.021580	0.489230	-0.065000
C132	C	0.391730	0.065410	0.557520	0.029000
C133	C	0.401760	0.086940	0.557200	-0.065000
O134	O	0.219510	0.009430	0.629970	-0.190000
C135	C	0.226970	0.029510	0.700480	-0.019000
C136	C	0.004760	0.015370	0.617610	0.115000
C137	C	0.017860	0.007040	0.612810	-0.073000
C138	C	0.010080	0.485820	0.610610	-0.020000
C139	C	0.024950	0.478380	0.606850	0.042000
N140	N	0.019130	0.459330	0.574170	-0.113000
C141	C	0.032050	0.450370	0.568870	0.080000
C142	C	0.051600	0.459720	0.646670	-0.065000
C143	C	0.063250	0.450000	0.643360	-0.018000
C144	C	0.055800	0.430830	0.560500	-0.013000
C145	C	0.036210	0.421630	0.482580	-0.018000
C146	C	0.024430	0.431190	0.489230	-0.061000
C147	C	0.068260	0.420410	0.557520	0.029000
C148	C	0.089790	0.431910	0.557200	-0.065000
O149	O	0.012280	0.036650	0.629970	-0.186000
C150	C	0.032360	0.049270	0.700480	-0.018000
C151	C	0.475240	0.230420	0.617610	0.116000
C152	C	0.483560	0.251840	0.612810	-0.070000
C153	C	0.004790	0.265290	0.610610	-0.020000
C154	C	0.012220	0.287590	0.606850	0.039000
N155	N	0.031280	0.300830	0.574170	-0.114000
C156	C	0.040240	0.322710	0.568870	0.076000
C157	C	0.030880	0.332910	0.646670	-0.066000
C158	C	0.040600	0.354280	0.643360	-0.019000
C159	C	0.059780	0.366000	0.560500	-0.013000
C160	C	0.068970	0.355610	0.482580	-0.020000
C161	C	0.059410	0.334260	0.489230	-0.061000
C162	C	0.070200	0.388880	0.557520	0.029000
C163	C	0.058700	0.398910	0.557200	-0.065000
O164	O	0.453950	0.216660	0.629970	-0.185000
C165	C	0.441340	0.224120	0.700480	-0.022000
C166	C	0.260180	0.485840	0.617610	0.113000
C167	C	0.238760	0.472750	0.612810	-0.070000
C168	C	0.225310	0.480520	0.610610	-0.017000
C169	C	0.203010	0.465660	0.606850	0.048000
N170	N	0.189780	0.471480	0.574170	-0.117000
C171	C	0.167900	0.458560	0.568870	0.076000
C172	C	0.157700	0.439000	0.646670	-0.063000
C173	C	0.136330	0.427350	0.643360	-0.019000
C174	C	0.124600	0.434800	0.560500	-0.013000
C175	C	0.135000	0.454390	0.482580	-0.019000
C176	C	0.156340	0.466180	0.489230	-0.065000
C177	C	0.101720	0.422340	0.557520	0.029000
C178	C	0.091700	0.400810	0.557200	-0.065000
O179	O	0.273940	0.478320	0.629970	-0.190000
C180	C	0.266490	0.458250	0.700480	-0.019000
H181	H	0.211550	0.226240	0.116620	0.047000
H182	H	0.204850	0.254400	0.138970	0.020000
H183	H	0.188700	0.268550	0.218880	0.044000
H184	H	0.167730	0.286310	0.214230	0.031000
H185	H	0.216920	0.337670	-0.080900	0.032000
H186	H	0.238320	0.320530	-0.064730	0.053000
H187	H	0.148810	0.294520	0.062660	0.042000
H188	H	0.212610	0.179370	0.251250	0.041000
H189	H	0.202490	0.191730	0.100560	0.035000
H190	H	0.212000	0.202660	0.323860	0.036000
H191	H	0.273760	0.485310	0.116620	0.051000
H192	H	0.245600	0.450450	0.138970	0.020000
H193	H	0.231450	0.420150	0.218880	0.042000
H194	H	0.213700	0.381420	0.214230	0.031000
H195	H	0.162340	0.379250	-0.080900	0.032000
H196	H	0.179480	0.417790	-0.064730	0.050000
H197	H	0.205490	0.354300	0.062660	0.042000
H198	H	0.315670	0.019400	0.097840	0.043000
H199	H	0.295300	0.003630	0.260530	0.045000
H200	H	0.315280	0.030300	0.317280	0.051000
H201	H	0.014690	0.288450	0.116620	0.051000
H202	H	0.049550	0.295150	0.138970	0.025000
H203	H	0.079860	0.311310	0.218880	0.045000
H204	H	0.118580	0.332280	0.214230	0.031000
H205	H	0.120750	0.283090	-0.080900	0.032000
H206	H	0.082210	0.261690	-0.064730	0.047000
H207	H	0.145710	0.351190	0.062660	0.043000
H208	H	0.488110	0.297470	0.097570	0.035000
H209	H	0.491680	0.288490	0.316470	0.036000
H210	H	0.466880	0.286960	0.261630	0.038000
H211	H	0.288450	0.273760	0.116620	0.046000
H212	H	0.295150	0.245600	0.138970	0.020000
H213	H	0.311310	0.231450	0.218880	0.044000
H214	H	0.332280	0.213700	0.214230	0.031000
H215	H	0.283090	0.162340	-0.080900	0.032000
H216	H	0.261690	0.179480	-0.064730	0.054000
H217	H	0.351190	0.205480	0.062660	0.042000
H218	H	0.296220	0.315830	0.098300	0.038000
H219	H	0.291750	0.295300	0.258820	0.033000
H220	H	0.284940	0.315120	0.318540	0.041000
H221	H	0.226240	0.014690	0.116620	0.048000
H222	H	0.254400	0.049550	0.138970	0.018000
H223	H	0.268550	0.079860	0.218880	0.042000
H224	H	0.286310	0.118580	0.214230	0.031000
H225	H	0.337670	0.120750	-0.080900	0.032000
H226	H	0.320530	0.082210	-0.064730	0.050000
H227	H	0.294520	0.145710	0.062660	0.042000
H228	H	0.182530	0.468150	0.296860	0.053000
H229	H	0.186750	0.483680	0.093880	0.043000
H230	H	0.204480	0.494840	0.284930	0.048000
H231	H	0.485310	0.211550	0.116620	0.051000
H232	H	0.450450	0.204850	0.138970	0.027000
H233	H	0.420150	0.188700	0.218880	0.047000
H234	H	0.381420	0.167730	0.214230	0.032000
H235	H	0.379250	0.216920	-0.080900	0.032000
H236	H	0.417790	0.238320	-0.064730	0.049000
H237	H	0.354300	0.148810	0.062660	0.043000
H238	H	0.032390	0.214000	0.286200	0.038000
H239	H	0.014880	0.202840	0.093810	0.036000
H240	H	0.006060	0.210250	0.295650	0.036000
H241	H	0.458280	0.470120	0.610640	0.047000
H242	H	0.451580	0.498280	0.632980	0.020000
H243	H	0.435420	0.012430	0.712890	0.044000
H244	H	0.414450	0.030180	0.708240	0.031000
H245	H	0.463640	0.081540	0.413110	0.032000
H246	H	0.485040	0.064400	0.429280	0.053000
H247	H	0.395540	0.038390	0.556680	0.042000
H248	H	0.459330	0.423250	0.745260	0.041000
H249	H	0.449210	0.435610	0.594570	0.035000
H250	H	0.458730	0.446530	0.817870	0.036000
H251	H	0.020490	0.229190	0.610640	0.047000
H252	H	0.492330	0.194320	0.632980	0.018000
H253	H	0.478180	0.164020	0.712890	0.042000
H254	H	0.460420	0.125290	0.708240	0.031000
H255	H	0.409060	0.123130	0.413110	0.032000
H256	H	0.426200	0.161670	0.429280	0.049000
H257	H	0.452210	0.098170	0.556680	0.042000
H258	H	0.062400	0.263280	0.591860	0.042000
H259	H	0.042020	0.247510	0.754550	0.043000
H260	H	0.062000	0.274180	0.811300	0.052000
H261	H	0.261410	0.032330	0.610640	0.050000
H262	H	0.296280	0.039030	0.632980	0.026000
H263	H	0.326580	0.055180	0.712890	0.046000
H264	H	0.365310	0.076150	0.708240	0.031000
H265	H	0.367480	0.026960	0.413110	0.031000
H266	H	0.328930	0.005560	0.429280	0.048000
H267	H	0.392430	0.095070	0.556680	0.042000
H268	H	0.234830	0.041340	0.591580	0.034000
H269	H	0.238410	0.032360	0.810480	0.035000
H270	H	0.213610	0.030840	0.755640	0.037000
H271	H	0.035180	0.017640	0.610640	0.046000
H272	H	0.041880	0.489480	0.632980	0.020000
H273	H	0.058030	0.475320	0.712890	0.044000
H274	H	0.079000	0.457570	0.708240	0.031000
H275	H	0.029810	0.406210	0.413110	0.032000
H276	H	0.008410	0.423350	0.429280	0.053000
H277	H	0.097920	0.449360	0.556680	0.042000
H278	H	0.042940	0.059700	0.592310	0.038000
H279	H	0.038480	0.039180	0.752840	0.032000
H280	H	0.031670	0.058990	0.812560	0.040000
H281	H	0.472970	0.258570	0.610640	0.050000
H282	H	0.001130	0.293430	0.632980	0.019000
H283	H	0.015280	0.323730	0.712890	0.041000
H284	H	0.033030	0.362460	0.708240	0.031000
H285	H	0.084390	0.364630	0.413110	0.031000
H286	H	0.067250	0.326080	0.429280	0.048000
H287	H	0.041240	0.389580	0.556680	0.042000
H288	H	0.429250	0.212020	0.790870	0.047000
H289	H	0.433480	0.227560	0.587890	0.042000
H290	H	0.451210	0.238720	0.778940	0.046000
H291	H	0.232040	0.455430	0.610640	0.050000
H292	H	0.197180	0.448730	0.632980	0.024000
H293	H	0.166870	0.432570	0.712890	0.044000
H294	H	0.128140	0.411600	0.708240	0.031000
H295	H	0.125980	0.460790	0.413110	0.031000
H296	H	0.164520	0.482190	0.429280	0.046000
H297	H	0.101020	0.392690	0.556680	0.042000
H298	H	0.279120	0.457870	0.780220	0.037000
H299	H	0.261610	0.446720	0.587830	0.035000
H300	H	0.252780	0.454130	0.789660	0.035000
C301	C	0.741970	0.228510	0.123590	0.115000
C302	C	0.728870	0.236830	0.118800	-0.073000
C303	C	0.736650	0.258060	0.116600	-0.020000
C304	C	0.721780	0.265500	0.112840	0.042000
N305	N	0.727600	0.284550	0.080150	-0.112000
C306	C	0.714680	0.293510	0.074860	0.080000
C307	C	0.695130	0.284160	0.152650	-0.065000
C308	C	0.683480	0.293880	0.149350	-0.018000
C309	C	0.690930	0.313050	0.066480	-0.013000
C310	C	0.710520	0.322250	-0.011440	-0.018000
C311	C	0.722300	0.312690	-0.004790	-0.061000
C312	C	0.678460	0.323470	0.063500	0.029000
C313	C	0.656940	0.311970	0.063190	-0.065000
O314	O	0.734450	0.207230	0.135960	-0.186000
C315	C	0.714370	0.194610	0.206460	-0.019000
C316	C	0.771490	0.013450	0.123590	0.117000
C317	C	0.763170	0.492040	0.118800	-0.069000
C318	C	0.741940	0.478590	0.116600	-0.019000
C319	C	0.734510	0.456290	0.112840	0.040000
N320	N	0.715450	0.443050	0.080150	-0.114000
C321	C	0.706490	0.421170	0.074860	0.077000
C322	C	0.715850	0.410970	0.152650	-0.066000
C323	C	0.706130	0.389600	0.149350	-0.019000
C324	C	0.686950	0.377870	0.066480	-0.013000
C325	C	0.677760	0.388270	-0.011440	-0.019000
C326	C	0.687320	0.409620	-0.004790	-0.061000
C327	C	0.676530	0.355000	0.063500	0.029000
C328	C	0.688030	0.344970	0.063190	-0.065000
O329	O	0.792780	0.027220	0.135960	-0.185000
C330	C	0.805390	0.019760	0.206460	-0.021000
C331	C	0.986550	0.258040	0.123590	0.114000
C332	C	0.507960	0.271130	0.118800	-0.069000
C333	C	0.521420	0.263350	0.116600	-0.016000
C334	C	0.543720	0.278220	0.112840	0.049000
N335	N	0.556950	0.272400	0.080150	-0.116000
C336	C	0.578830	0.285320	0.074860	0.077000
C337	C	0.589030	0.304880	0.152650	-0.062000
C338	C	0.610400	0.316530	0.149350	-0.019000
C339	C	0.622130	0.309080	0.066480	-0.013000
C340	C	0.611730	0.289490	-0.011440	-0.018000
C341	C	0.590390	0.277700	-0.004790	-0.064000
C342	C	0.645010	0.321540	0.063500	0.029000
C343	C	0.655030	0.343060	0.063190	-0.065000
O344	O	0.972790	0.265560	0.135960	-0.189000
C345	C	0.980240	0.285630	0.206460	-0.019000
C346	C	0.758040	0.271490	0.123590	0.115000
C347	C	0.771130	0.263170	0.118800	-0.073000
C348	C	0.763350	0.241940	0.116600	-0.020000
C349	C	0.778220	0.234510	0.112840	0.042000
N350	N	0.772400	0.215450	0.080150	-0.112000
C351	C	0.785320	0.206490	0.074860	0.080000
C352	C	0.804880	0.215850	0.152650	-0.065000
C353	C	0.816530	0.206130	0.149350	-0.018000
C354	C	0.809080	0.186950	0.066480	-0.013000
C355	C	0.789490	0.177760	-0.011440	-0.018000
C356	C	0.777700	0.187320	-0.004790	-0.061000
C357	C	0.821540	0.176530	0.063500	0.029000
C358	C	0.843060	0.188030	0.063190	-0.065000
O359	O	0.765560	0.292780	0.135960	-0.186000
C360	C	0.785630	0.305390	0.206460	-0.018000
C361	C	0.728510	0.486550	0.123590	0.117000
C362	C	0.736830	0.007960	0.118800	-0.070000
C363	C	0.758060	0.021410	0.116600	-0.021000
C364	C	0.765500	0.043710	0.112840	0.039000
N365	N	0.784550	0.056950	0.080150	-0.114000
C366	C	0.793510	0.078830	0.074860	0.078000
C367	C	0.784160	0.089030	0.152650	-0.065000
C368	C	0.793880	0.110400	0.149350	-0.019000
C369	C	0.813050	0.122130	0.066480	-0.013000
C370	C	0.822250	0.111730	-0.011440	-0.019000
C371	C	0.812690	0.090390	-0.004790	-0.061000
C372	C	0.823470	0.145010	0.063500	0.029000
C373	C	0.811970	0.155030	0.063190	-0.065000
O374	O	0.707230	0.472790	0.135960	-0.182000
C375	C	0.694610	0.480240	0.206460	-0.023000
C376	C	0.513460	0.241970	0.123590	0.115000
C377	C	0.992040	0.228870	0.118800	-0.070000
C378	C	0.978590	0.236650	0.116600	-0.018000
C379	C	0.956290	0.221780	0.112840	0.047000
N380	N	0.943050	0.227600	0.080150	-0.116000
C381	C	0.921170	0.214680	0.074860	0.076000
C382	C	0.910970	0.195130	0.152650	-0.063000
C383	C	0.889600	0.183480	0.149350	-0.018000
C384	C	0.877870	0.190930	0.066480	-0.013000
C385	C	0.888270	0.210520	-0.011440	-0.019000
C386	C	0.909620	0.222300	-0.004790	-0.065000
C387	C	0.855000	0.178470	0.063500	0.029000
C388	C	0.844970	0.156940	0.063190	-0.065000
O389	O	0.527220	0.234450	0.135960	-0.189000
C390	C	0.519760	0.214370	0.206460	-0.019000
C391	C	0.988690	0.472390	0.617610	0.114000
C392	C	0.975600	0.480710	0.612810	-0.073000
C393	C	0.983380	0.001940	0.610610	-0.020000
C394	C	0.968510	0.009370	0.606850	0.042000
N395	N	0.974330	0.028430	0.574170	-0.113000
C396	C	0.961410	0.037390	0.568870	0.080000
C397	C	0.941850	0.028030	0.646670	-0.065000
C398	C	0.930200	0.037750	0.643360	-0.018000
C399	C	0.937650	0.056930	0.560500	-0.013000
C400	C	0.957240	0.066120	0.482580	-0.018000
C401	C	0.969030	0.056560	0.489230	-0.061000
C402	C	0.925190	0.067350	0.557520	0.029000
C403	C	0.903670	0.055840	0.557200	-0.065000
O404	O	0.981170	0.451100	0.629970	-0.186000
C405	C	0.961100	0.438490	0.700480	-0.019000
C406	C	0.518220	0.257330	0.617610	0.117000
C407	C	0.509900	0.235910	0.612810	-0.070000
C408	C	0.988670	0.222460	0.610610	-0.022000
C409	C	0.981230	0.200160	0.606850	0.038000
N410	N	0.962180	0.186930	0.574170	-0.115000
C411	C	0.953220	0.165050	0.568870	0.077000
C412	C	0.962570	0.154850	0.646670	-0.065000
C413	C	0.952850	0.133480	0.643360	-0.019000
C414	C	0.933680	0.121750	0.560500	-0.013000
C415	C	0.924480	0.132150	0.482580	-0.020000
C416	C	0.934040	0.153490	0.489230	-0.061000
C417	C	0.923260	0.098870	0.557520	0.029000
C418	C	0.934760	0.088850	0.557200	-0.065000
O419	O	0.539500	0.271090	0.629970	-0.183000
C420	C	0.552120	0.263640	0.700480	-0.022000
C421	C	0.733270	0.001910	0.617610	0.114000
C422	C	0.754690	0.015010	0.612810	-0.071000
C423	C	0.768140	0.007230	0.610610	-0.018000
C424	C	0.790440	0.022100	0.606850	0.046000
N425	N	0.803680	0.016280	0.574170	-0.117000
C426	C	0.825560	0.029200	0.568870	0.074000
C427	C	0.835760	0.048750	0.646670	-0.063000
C428	C	0.857130	0.060400	0.643360	-0.019000
C429	C	0.868850	0.052950	0.560500	-0.013000
C430	C	0.858460	0.033360	0.482580	-0.019000
C431	C	0.837110	0.021580	0.489230	-0.065000
C432	C	0.891730	0.065410	0.557520	0.029000
C433	C	0.901760	0.086940	0.557200	-0.065000
O434	O	0.719510	0.009430	0.629970	-0.190000
C435	C	0.726970	0.029500	0.700480	-0.019000
C436	C	0.504760	0.015370	0.617610	0.115000
C437	C	0.517860	0.007040	0.612810	-0.073000
C438	C	0.510080	0.485820	0.610610	-0.020000
C439	C	0.524950	0.478380	0.606850	0.042000
N440	N	0.519130	0.459330	0.574170	-0.113000
C441	C	0.532050	0.450370	0.568870	0.080000
C442	C	0.551600	0.459720	0.646670	-0.065000
C443	C	0.563250	0.450000	0.643360	-0.018000
C444	C	0.555800	0.430830	0.560500	-0.013000
C445	C	0.536210	0.421630	0.482580	-0.018000
C446	C	0.524430	0.431190	0.489230	-0.061000
C447	C	0.568260	0.420410	0.557520	0.029000
C448	C	0.589790	0.431910	0.557200	-0.065000
O449	O	0.512280	0.036650	0.629970	-0.186000
C450	C	0.532360	0.049270	0.700480	-0.018000
C451	C	0.975240	0.230420	0.617610	0.116000
C452	C	0.983560	0.251840	0.612810	-0.070000
C453	C	0.504790	0.265290	0.610610	-0.020000
C454	C	0.512220	0.287590	0.606850	0.039000
N455	N	0.531280	0.300830	0.574170	-0.114000
C456	C	0.540240	0.322710	0.568870	0.076000
C457	C	0.530880	0.332910	0.646670	-0.066000
C458	C	0.540600	0.354280	0.643360	-0.019000
C459	C	0.559780	0.366000	0.560500	-0.013000
C460	C	0.568970	0.355610	0.482580	-0.020000
C461	C	0.559410	0.334260	0.489230	-0.061000
C462	C	0.570200	0.388880	0.557520	0.029000
C463	C	0.558700	0.398910	0.557200	-0.065000
O464	O	0.953950	0.216660	0.629970	-0.185000
C465	C	0.941340	0.224120	0.700480	-0.022000
C466	C	0.760180	0.485840	0.617610	0.113000
C467	C	0.738760	0.472750	0.612810	-0.070000
C468	C	0.725310	0.480520	0.610610	-0.017000
C469	C	0.703010	0.465660	0.606850	0.048000
N470	N	0.689780	0.471480	0.574170	-0.117000
C471	C	0.667900	0.458560	0.568870	0.076000
C472	C	0.657700	0.439000	0.646670	-0.063000
C473	C	0.636330	0.427350	0.643360	-0.019000
C474	C	0.624600	0.434800	0.560500	-0.013000
C475	C	0.635000	0.454390	0.482580	-0.019000
C476	C	0.656340	0.466180	0.489230	-0.065000
C477	C	0.601720	0.422340	0.557520	0.029000
C478	C	0.591700	0.400810	0.557200	-0.065000
O479	O	0.773940	0.478320	0.629970	-0.190000
C480	C	0.766490	0.458250	0.700480	-0.019000
H481	H	0.711550	0.226240	0.116620	0.047000
H482	H	0.704850	0.254400	0.138970	0.020000
H483	H	0.688700	0.268550	0.218880	0.044000
H484	H	0.667730	0.286310	0.214230	0.031000
H485	H	0.716920	0.337670	-0.080900	0.032000
H486	H	0.738320	0.320530	-0.064730	0.053000
H487	H	0.648810	0.294510	0.062660	0.042000
H488	H	0.712610	0.179370	0.251250	0.041000
H489	H	0.702490	0.191730	0.100560	0.035000
H490	H	0.712000	0.202660	0.323860	0.036000
H491	H	0.773760	0.485310	0.116620	0.051000
H492	H	0.745600	0.450450	0.138970	0.020000
H493	H	0.731450	0.420150	0.218880	0.042000
H494	H	0.713700	0.381420	0.214230	0.031000
H495	H	0.662340	0.379250	-0.080900	0.032000
H496	H	0.679480	0.417790	-0.064730	0.050000
H497	H	0.705490	0.354300	0.062660	0.042000
H498	H	0.815670	0.019400	0.097840	0.043000
H499	H	0.795300	0.003630	0.260530	0.045000
H500	H	0.815280	0.030300	0.317280	0.051000
H501	H	0.514690	0.288450	0.116620	0.051000
H502	H	0.549550	0.295150	0.138970	0.025000
H503	H	0.579860	0.311310	0.218880	0.045000
H504	H	0.618580	0.332280	0.214230	0.031000
H505	H	0.620750	0.283090	-0.080900	0.032000
H506	H	0.582210	0.261690	-0.064730	0.047000
H507	H	0.645710	0.351190	0.062660	0.043000
H508	H	0.988110	0.297470	0.097570	0.035000
H509	H	0.991680	0.288490	0.316470	0.036000
H510	H	0.966880	0.286960	0.261630	0.038000
H511	H	0.788450	0.273760	0.116620	0.046000
H512	H	0.795150	0.245600	0.138970	0.020000
H513	H	0.811310	0.231450	0.218880	0.044000
H514	H	0.832280	0.213700	0.214230	0.031000
H515	H	0.783090	0.162330	-0.080900	0.032000
H516	H	0.761690	0.179470	-0.064730	0.054000
H517	H	0.851190	0.205490	0.062660	0.042000
H518	H	0.796220	0.315830	0.098300	0.038000
H519	H	0.791750	0.295300	0.258820	0.033000
H520	H	0.784940	0.315120	0.318540	0.041000
H521	H	0.726240	0.014690	0.116620	0.048000
H522	H	0.754400	0.049550	0.138970	0.018000
H523	H	0.768550	0.079860	0.218880	0.042000
H524	H	0.786310	0.118580	0.214230	0.031000
H525	H	0.837670	0.120750	-0.080900	0.032000
H526	H	0.820530	0.082210	-0.064730	0.050000
H527	H	0.794520	0.145710	0.062660	0.042000
H528	H	0.682530	0.468150	0.296860	0.053000
H529	H	0.686750	0.483680	0.093880	0.043000
H530	H	0.704480	0.494840	0.284930	0.048000
H531	H	0.985310	0.211550	0.116620	0.051000
H532	H	0.950450	0.204850	0.138970	0.027000
H533	H	0.920150	0.188700	0.218880	0.047000
H534	H	0.881420	0.167730	0.214230	0.032000
H535	H	0.879250	0.216920	-0.080900	0.032000
H536	H	0.917790	0.238320	-0.064730	0.049000
H537	H	0.854300	0.148810	0.062660	0.043000
H538	H	0.532400	0.214000	0.286200	0.038000
H539	H	0.514880	0.202840	0.093810	0.036000
H540	H	0.506060	0.210250	0.295650	0.036000
H541	H	0.958280	0.470120	0.610640	0.047000
H542	H	0.951580	0.498280	0.632980	0.020000
H543	H	0.935420	0.012430	0.712890	0.044000
H544	H	0.914450	0.030180	0.708240	0.031000
H545	H	0.963640	0.081540	0.413110	0.032000
H546	H	0.985040	0.064400	0.429280	0.053000
H547	H	0.895540	0.038390	0.556680	0.042000
H548	H	0.959330	0.423250	0.745260	0.041000
H549	H	0.949210	0.435610	0.594570	0.035000
H550	H	0.958730	0.446530	0.817870	0.036000
H551	H	0.520490	0.229190	0.610640	0.047000
H552	H	0.992330	0.194320	0.632980	0.018000
H553	H	0.978180	0.164020	0.712890	0.042000
H554	H	0.960420	0.125290	0.708240	0.031000
H555	H	0.909060	0.123130	0.413110	0.032000
H556	H	0.926200	0.161670	0.429280	0.049000
H557	H	0.952210	0.098170	0.556680	0.042000
H558	H	0.562400	0.263280	0.591860	0.042000
H559	H	0.542020	0.247510	0.754550	0.043000
H560	H	0.562000	0.274180	0.811300	0.052000
H561	H	0.761420	0.032330	0.610640	0.050000
H562	H	0.796280	0.039030	0.632980	0.026000
H563	H	0.826580	0.055180	0.712890	0.046000
H564	H	0.865310	0.076150	0.708240	0.031000
H565	H	0.867480	0.026960	0.413110	0.031000
H566	H	0.828930	0.005560	0.429280	0.048000
H567	H	0.892430	0.095070	0.556680	0.042000
H568	H	0.734830	0.041340	0.591580	0.034000
H569	H	0.738410	0.032360	0.810480	0.035000
H570	H	0.713610	0.030840	0.755640	0.037000
H571	H	0.535180	0.017640	0.610640	0.046000
H572	H	0.541880	0.489480	0.632980	0.020000
H573	H	0.558030	0.475320	0.712890	0.044000
H574	H	0.579000	0.457570	0.708240	0.031000
H575	H	0.529810	0.406210	0.413110	0.032000
H576	H	0.508410	0.423350	0.429280	0.053000
H577	H	0.597920	0.449360	0.556680	0.042000
H578	H	0.542940	0.059700	0.592310	0.038000
H579	H	0.538480	0.039180	0.752840	0.032000
H580	H	0.531670	0.058990	0.812560	0.040000
H581	H	0.972970	0.258570	0.610640	0.050000
H582	H	0.501130	0.293430	0.632980	0.019000
H583	H	0.515280	0.323730	0.712890	0.041000
H584	H	0.533030	0.362460	0.708240	0.031000
H585	H	0.584390	0.364630	0.413110	0.031000
H586	H	0.567250	0.326080	0.429280	0.048000
H587	H	0.541240	0.389580	0.556680	0.042000
H588	H	0.929250	0.212020	0.790870	0.047000
H589	H	0.933480	0.227560	0.587890	0.042000
H590	H	0.951210	0.238720	0.778940	0.046000
H591	H	0.732040	0.455430	0.610640	0.050000
H592	H	0.697180	0.448730	0.632980	0.024000
H593	H	0.666870	0.432570	0.712890	0.044000
H594	H	0.628140	0.411600	0.708240	0.031000
H595	H	0.625980	0.460790	0.413110	0.031000
H596	H	0.664520	0.482190	0.429280	0.046000
H597	H	0.601020	0.392690	0.556680	0.042000
H598	H	0.779120	0.457870	0.780220	0.037000
H599	H	0.761610	0.446720	0.587830	0.035000
H600	H	0.752780	0.454130	0.789660	0.035000
C601	C	0.241970	0.728510	0.123590	0.115000
C602	C	0.228870	0.736830	0.118800	-0.073000
C603	C	0.236650	0.758060	0.116600	-0.020000
C604	C	0.221780	0.765500	0.112840	0.042000
N605	N	0.227600	0.784550	0.080150	-0.112000
C606	C	0.214680	0.793510	0.074860	0.080000
C607	C	0.195130	0.784160	0.152650	-0.065000
C608	C	0.183480	0.793880	0.149350	-0.018000
C609	C	0.190930	0.813050	0.066480	-0.013000
C610	C	0.210520	0.822250	-0.011440	-0.018000
C611	C	0.222300	0.812690	-0.004790	-0.061000
C612	C	0.178470	0.823470	0.063500	0.029000
C613	C	0.156940	0.811970	0.063190	-0.065000
O614	O	0.234450	0.707230	0.135960	-0.186000
C615	C	0.214370	0.694610	0.206460	-0.019000
C616	C	0.271490	0.513460	0.123590	0.117000
C617	C	0.263170	0.992040	0.118800	-0.069000
C618	C	0.241940	0.978590	0.116600	-0.019000
C619	C	0.234510	0.956290	0.112840	0.040000
N620	N	0.215450	0.943050	0.080150	-0.114000
C621	C	0.206490	0.921170	0.074860	0.077000
C622	C	0.215850	0.910970	0.152650	-0.066000
C623	C	0.206130	0.889600	0.149350	-0.019000
C624	C	0.186950	0.877870	0.066480	-0.013000
C625	C	0.177760	0.888270	-0.011440	-0.019000
C626	C	0.187320	0.909620	-0.004790	-0.061000
C627	C	0.176530	0.855000	0.063500	0.029000
C628	C	0.188030	0.844970	0.063190	-0.065000
O629	O	0.292780	0.527220	0.135960	-0.185000
C630	C	0.305390	0.519760	0.206460	-0.021000
C631	C	0.486550	0.758040	0.123590	0.114000
C632	C	0.007960	0.771130	0.118800	-0.069000
C633	C	0.021410	0.763350	0.116600	-0.016000
C634	C	0.043720	0.778220	0.112840	0.049000
N635	N	0.056950	0.772400	0.080150	-0.116000
C636	C	0.078830	0.785320	0.074860	0.077000
C637	C	0.089030	0.804880	0.152650	-0.062000
C638	C	0.110400	0.816530	0.149350	-0.019000
C639	C	0.122130	0.809080	0.066480	-0.013000
C640	C	0.111730	0.789490	-0.011440	-0.018000
C641	C	0.090380	0.777700	-0.004790	-0.064000
C642	C	0.145010	0.821540	0.063500	0.029000
C643	C	0.155030	0.843060	0.063190	-0.065000
O644	O	0.472790	0.765560	0.135960	-0.189000
C645	C	0.480240	0.785630	0.206460	-0.019000
C646	C	0.258040	0.771490	0.123590	0.115000
C647	C	0.271130	0.763170	0.118800	-0.073000
C648	C	0.263350	0.741940	0.116600	-0.020000
C649	C	0.278220	0.734510	0.112840	0.042000
N650	N	0.272400	0.715450	0.080150	-0.112000
C651	C	0.285320	0.706490	0.074860	0.080000
C652	C	0.304880	0.715850	0.152650	-0.065000
C653	C	0.316530	0.706130	0.149350	-0.018000
C654	C	0.309080	0.686950	0.066480	-0.013000
C655	C	0.289480	0.677760	-0.011440	-0.018000
C656	C	0.277700	0.687320	-0.004790	-0.061000
C657	C	0.321540	0.676530	0.063500	0.029000
C658	C	0.343060	0.688030	0.063190	-0.065000
O659	O	0.265550	0.792780	0.135960	-0.186000
C660	C	0.285630	0.805390	0.206460	-0.018000
C661	C	0.228510	0.986550	0.123590	0.117000
C662	C	0.236830	0.507960	0.118800	-0.070000
C663	C	0.258060	0.521410	0.116600	-0.021000
C664	C	0.265500	0.543720	0.112840	0.039000
N665	N	0.284550	0.556950	0.080150	-0.114000
C666	C	0.293510	0.578830	0.074860	0.078000
C667	C	0.284160	0.589030	0.152650	-0.065000
C668	C	0.293880	0.610400	0.149350	-0.019000
C669	C	0.313050	0.622130	0.066480	-0.013000
C670	C	0.322250	0.611730	-0.011440	-0.019000
C671	C	0.312690	0.590390	-0.004790	-0.061000
C672	C	0.323470	0.645010	0.063500	0.029000
C673	C	0.311970	0.655030	0.063190	-0.065000
O674	O	0.207230	0.972790	0.135960	-0.182000
C675	C	0.194610	0.980240	0.206460	-0.023000
C676	C	0.013450	0.741970	0.123590	0.115000
C677	C	0.492040	0.728870	0.118800	-0.070000
C678	C	0.478590	0.736650	0.116600	-0.018000
C679	C	0.456290	0.721780	0.112840	0.047000
N680	N	0.443050	0.727600	0.080150	-0.116000
C681	C	0.421170	0.714680	0.074860	0.076000
C682	C	0.410970	0.695130	0.152650	-0.063000
C683	C	0.389600	0.683480	0.149350	-0.018000
C684	C	0.377870	0.690930	0.066480	-0.013000
C685	C	0.388270	0.710520	-0.011440	-0.019000
C686	C	0.409620	0.722300	-0.004790	-0.065000
C687	C	0.355000	0.678470	0.063500	0.029000
C688	C	0.344970	0.656940	0.063190	-0.065000
O689	O	0.027210	0.734450	0.135960	-0.189000
C690	C	0.019760	0.714370	0.206460	-0.019000
C691	C	0.488690	0.972390	0.617610	0.114000
C692	C	0.475600	0.980710	0.612810	-0.073000
C693	C	0.483380	0.501940	0.610610	-0.020000
C694	C	0.468510	0.509370	0.606850	0.042000
N695	N	0.474330	0.528430	0.574170	-0.113000
C696	C	0.461410	0.537390	0.568870	0.080000
C697	C	0.441850	0.528030	0.646670	-0.065000
C698	C	0.430200	0.537750	0.643360	-0.018000
C699	C	0.437650	0.556930	0.560500	-0.013000
C700	C	0.457240	0.566120	0.482580	-0.018000
C701	C	0.469030	0.556560	0.489230	-0.061000
C702	C	0.425190	0.567350	0.557520	0.029000
C703	C	0.403670	0.555840	0.557200	-0.065000
O704	O	0.481170	0.951100	0.629970	-0.186000
C705	C	0.461100	0.938490	0.700480	-0.019000
C706	C	0.018220	0.757330	0.617610	0.117000
C707	C	0.009900	0.735910	0.612810	-0.070000
C708	C	0.488670	0.722460	0.610610	-0.022000
C709	C	0.481230	0.700160	0.606850	0.038000
N710	N	0.462180	0.686930	0.574170	-0.115000
C711	C	0.453220	0.665050	0.568870	0.077000
C712	C	0.462570	0.654850	0.646670	-0.065000
C713	C	0.452850	0.633480	0.643360	-0.019000
C714	C	0.433680	0.621750	0.560500	-0.013000
C715	C	0.424480	0.632150	0.482580	-0.020000
C716	C	0.434040	0.653490	0.489230	-0.061000
C717	C	0.423260	0.598870	0.557520	0.029000
C718	C	0.434760	0.588850	0.557200	-0.065000
O719	O	0.039500	0.771090	0.629970	-0.183000
C720	C	0.052120	0.763640	0.700480	-0.022000
C721	C	0.233270	0.501910	0.617610	0.114000
C722	C	0.254690	0.515010	0.612810	-0.071000
C723	C	0.268140	0.507230	0.610610	-0.018000
C724	C	0.290440	0.522100	0.606850	0.046000
N725	N	0.303680	0.516280	0.574170	-0.117000
C726	C	0.325560	0.529200	0.568870	0.074000
C727	C	0.335760	0.548750	0.646670	-0.063000
C728	C	0.357130	0.560400	0.643360	-0.019000
C729	C	0.368850	0.552950	0.560500	-0.013000
C730	C	0.358460	0.533360	0.482580	-0.019000
C731	C	0.337110	0.521580	0.489230	-0.065000
C732	C	0.391730	0.565410	0.557520	0.029000
C733	C	0.401760	0.586940	0.557200	-0.065000
O734	O	0.219510	0.509430	0.629970	-0.190000
C735	C	0.226970	0.529510	0.700480	-0.019000
C736	C	0.004760	0.515370	0.617610	0.115000
C737	C	0.017860	0.507040	0.612810	-0.073000
C738	C	0.010080	0.985820	0.610610	-0.020000
C739	C	0.024950	0.978380	0.606850	0.042000
N740	N	0.019130	0.959330	0.574170	-0.113000
C741	C	0.032050	0.950370	0.568870	0.080000
C742	C	0.051600	0.959720	0.646670	-0.065000
C743	C	0.063250	0.950000	0.643360	-0.018000
C744	C	0.055800	0.930830	0.560500	-0.013000
C745	C	0.036210	0.921630	0.482580	-0.018000
C746	C	0.024430	0.931190	0.489230	-0.061000
C747	C	0.068260	0.920410	0.557520	0.029000
C748	C	0.089790	0.931910	0.557200	-0.065000
O749	O	0.012280	0.536650	0.629970	-0.186000
C750	C	0.032360	0.549270	0.700480	-0.018000
C751	C	0.475240	0.730420	0.617610	0.116000
C752	C	0.483560	0.751840	0.612810	-0.070000
C753	C	0.004790	0.765290	0.610610	-0.020000
C754	C	0.012220	0.787590	0.606850	0.039000
N755	N	0.031280	0.800830	0.574170	-0.114000
C756	C	0.040240	0.822710	0.568870	0.076000
C757	C	0.030880	0.832910	0.646670	-0.066000
C758	C	0.040600	0.854280	0.643360	-0.019000
C759	C	0.059780	0.866000	0.560500	-0.013000
C760	C	0.068970	0.855610	0.482580	-0.020000
C761	C	0.059410	0.834260	0.489230	-0.061000
C762	C	0.070200	0.888880	0.557520	0.029000
C763	C	0.058700	0.898910	0.557200	-0.065000
O764	O	0.453950	0.716660	0.629970	-0.185000
C765	C	0.441340	0.724120	0.700480	-0.022000
C766	C	0.260180	0.985840	0.617610	0.113000
C767	C	0.238760	0.972750	0.612810	-0.070000
C768	C	0.225310	0.980520	0.610610	-0.017000
C769	C	0.203010	0.965660	0.606850	0.048000
N770	N	0.189780	0.971480	0.574170	-0.117000
C771	C	0.167900	0.958560	0.568870	0.076000
C772	C	0.157700	0.939000	0.646670	-0.063000
C773	C	0.136330	0.927350	0.643360	-0.019000
C774	C	0.124600	0.934800	0.560500	-0.013000
C775	C	0.135000	0.954390	0.482580	-0.019000
C776	C	0.156340	0.966180	0.489230	-0.065000
C777	C	0.101720	0.922340	0.557520	0.029000
C778	C	0.091700	0.900810	0.557200	-0.065000
O779	O	0.273940	0.978320	0.629970	-0.190000
C780	C	0.266490	0.958250	0.700480	-0.019000
H781	H	0.211550	0.726240	0.116620	0.047000
H782	H	0.204850	0.754400	0.138970	0.020000
H783	H	0.188700	0.768550	0.218880	0.044000
H784	H	0.167730	0.786310	0.214230	0.031000
H785	H	0.216920	0.837670	-0.080900	0.032000
H786	H	0.238320	0.820530	-0.064730	0.053000
H787	H	0.148810	0.794520	0.062660	0.042000
H788	H	0.212610	0.679370	0.251250	0.041000
H789	H	0.202490	0.691730	0.100560	0.035000
H790	H	0.212000	0.702660	0.323860	0.036000
H791	H	0.273760	0.985310	0.116620	0.051000
H792	H	0.245600	0.950450	0.138970	0.020000
H793	H	0.231450	0.920150	0.218880	0.042000
H794	H	0.213700	0.881420	0.214230	0.031000
H795	H	0.162340	0.879250	-0.080900	0.032000
H796	H	0.179480	0.917790	-0.064730	0.050000
H797	H	0.205490	0.854300	0.062660	0.042000
H798	H	0.315670	0.519400	0.097840	0.043000
H799	H	0.295300	0.503640	0.260530	0.045000
H800	H	0.315280	0.530300	0.317280	0.051000
H801	H	0.014690	0.788450	0.116620	0.051000
H802	H	0.049550	0.795150	0.138970	0.025000
H803	H	0.079860	0.811310	0.218880	0.045000
H804	H	0.118580	0.832280	0.214230	0.031000
H805	H	0.120750	0.783090	-0.080900	0.032000
H806	H	0.082210	0.761690	-0.064730	0.047000
H807	H	0.145710	0.851190	0.062660	0.043000
H808	H	0.488110	0.797470	0.097570	0.035000
H809	H	0.491680	0.788490	0.316470	0.036000
H810	H	0.466880	0.786960	0.261630	0.038000
H811	H	0.288450	0.773760	0.116620	0.046000
H812	H	0.295150	0.745600	0.138970	0.020000
H813	H	0.311310	0.731450	0.218880	0.044000
H814	H	0.332280	0.713700	0.214230	0.031000
H815	H	0.283090	0.662340	-0.080900	0.032000
H816	H	0.261690	0.679480	-0.064730	0.054000
H817	H	0.351190	0.705490	0.062660	0.042000
H818	H	0.296220	0.815830	0.098300	0.038000
H819	H	0.291750	0.795300	0.258820	0.033000
H820	H	0.284940	0.815120	0.318540	0.041000
H821	H	0.226240	0.514690	0.116620	0.048000
H822	H	0.254400	0.549550	0.138970	0.018000
H823	H	0.268550	0.579860	0.218880	0.042000
H824	H	0.286310	0.618580	0.214230	0.031000
H825	H	0.337670	0.620750	-0.080900	0.032000
H826	H	0.320530	0.582210	-0.064730	0.050000
H827	H	0.294520	0.645710	0.062660	0.042000
H828	H	0.182530	0.968150	0.296860	0.053000
H829	H	0.186750	0.983680	0.093880	0.043000
H830	H	0.204480	0.994840	0.284930	0.048000
H831	H	0.485310	0.711550	0.116620	0.051000
H832	H	0.450450	0.704850	0.138970	0.027000
H833	H	0.420150	0.688700	0.218880	0.047000
H834	H	0.381420	0.667730	0.214230	0.032000
H835	H	0.379250	0.716920	-0.080900	0.032000
H836	H	0.417790	0.738320	-0.064730	0.049000
H837	H	0.354300	0.648810	0.062660	0.043000
H838	H	0.032390	0.714000	0.286200	0.038000
H839	H	0.014880	0.702840	0.093810	0.036000
H840	H	0.006060	0.710250	0.295650	0.036000
H841	H	0.458280	0.970120	0.610640	0.047000
H842	H	0.451580	0.998280	0.632980	0.020000
H843	H	0.435420	0.512430	0.712890	0.044000
H844	H	0.414450	0.530180	0.708240	0.031000
H845	H	0.463640	0.581540	0.413110	0.032000
H846	H	0.485040	0.564400	0.429280	0.053000
H847	H	0.395540	0.538390	0.556680	0.042000
H848	H	0.459330	0.923250	0.745260	0.041000
H849	H	0.449210	0.935610	0.594570	0.035000
H850	H	0.458730	0.946530	0.817870	0.036000
H851	H	0.020490	0.729190	0.610640	0.047000
H852	H	0.492330	0.694320	0.632980	0.018000
H853	H	0.478180	0.664020	0.712890	0.042000
H854	H	0.460420	0.625290	0.708240	0.031000
H855	H	0.409060	0.623130	0.413110	0.032000
H856	H	0.426200	0.661670	0.429280	0.049000
H857	H	0.452210	0.598170	0.556680	0.042000
H858	H	0.062400	0.763280	0.591860	0.042000
H859	H	0.042020	0.747510	0.754550	0.043000
H860	H	0.062000	0.774180	0.811300	0.052000
H861	H	0.261410	0.532330	0.610640	0.050000
H862	H	0.296280	0.539030	0.632980	0.026000
H863	H	0.326580	0.555180	0.712890	0.046000
H864	H	0.365310	0.576150	0.708240	0.031000
H865	H	0.367480	0.526960	0.413110	0.031000
H866	H	0.328930	0.505560	0.429280	0.048000
H867	H	0.392430	0.595070	0.556680	0.042000
H868	H	0.234830	0.541340	0.591580	0.034000
H869	H	0.238410	0.532360	0.810480	0.035000
H870	H	0.213610	0.530840	0.755640	0.037000
H871	H	0.035180	0.517640	0.610640	0.046000
H872	H	0.041880	0.989480	0.632980	0.020000
H873	H	0.058030	0.975320	0.712890	0.044000
H874	H	0.079000	0.957570	0.708240	0.031000
H875	H	0.029810	0.906210	0.413110	0.032000
H876	H	0.008410	0.923350	0.429280	0.053000
H877	H	0.097920	0.949360	0.556680	0.042000
H878	H	0.042940	0.559700	0.592310	0.038000
H879	H	0.038480	0.539180	0.752840	0.032000
H880	H	0.031670	0.558990	0.812560	0.040000
H881	H	0.472970	0.758570	0.610640	0.050000
H882	H	0.001130	0.793430	0.632980	0.019000
H883	H	0.015280	0.823730	0.712890	0.041000
H884	H	0.033030	0.862460	0.708240	0.031000
H885	H	0.084390	0.864630	0.413110	0.031000
H886	H	0.067250	0.826080	0.429280	0.048000
H887	H	0.041240	0.889580	0.556680	0.042000
H888	H	0.429250	0.712020	0.790870	0.047000
H889	H	0.433480	0.727560	0.587890	0.042000
H890	H	0.451210	0.738720	0.778940	0.046000
H891	H	0.232040	0.955430	0.610640	0.050000
H892	H	0.197180	0.948730	0.632980	0.024000
H893	H	0.166870	0.932570	0.712890	0.044000
H894	H	0.128140	0.911600	0.708240	0.031000
H895	H	0.125980	0.960790	0.413110	0.031000
H896	H	0.164520	0.982190	0.429280	0.046000
H897	H	0.101020	0.892690	0.556680	0.042000
H898	H	0.279120	0.957870	0.780220	0.037000
H899	H	0.261610	0.946720	0.587830	0.035000
H900	H	0.252780	0.954130	0.789660	0.035000
C901	C	0.741970	0.728510	0.123590	0.115000
C902	C	0.728870	0.736830	0.118800	-0.073000
C903	C	0.736650	0.758060	0.116600	-0.020000
C904	C	0.721780	0.765500	0.112840	0.042000
N905	N	0.727600	0.784550	0.080150	-0.112000
C906	C	0.714680	0.793510	0.074860	0.080000
C907	C	0.695130	0.784160	0.152650	-0.065000
C908	C	0.683480	0.793880	0.149350	-0.018000
C909	C	0.690930	0.813050	0.066480	-0.013000
C910	C	0.710520	0.822250	-0.011440	-0.018000
C911	C	0.722300	0.812690	-0.004790	-0.061000
C912	C	0.678460	0.823470	0.063500	0.029000
C913	C	0.656940	0.811970	0.063190	-0.065000
O914	O	0.734450	0.707230	0.135960	-0.186000
C915	C	0.714370	0.694610	0.206460	-0.019000
C916	C	0.771490	0.513460	0.123590	0.117000
C917	C	0.763170	0.992040	0.118800	-0.069000
C918	C	0.741940	0.978590	0.116600	-0.019000
C919	C	0.734510	0.956290	0.112840	0.040000
N920	N	0.715450	0.943050	0.080150	-0.114000
C921	C	0.706490	0.921170	0.074860	0.077000
C922	C	0.715850	0.910970	0.152650	-0.066000
C923	C	0.706130	0.889600	0.149350	-0.019000
C924	C	0.686950	0.877870	0.066480	-0.013000
C925	C	0.677760	0.888270	-0.011440	-0.019000
C926	C	0.687320	0.909620	-0.004790	-0.061000
C927	C	0.676530	0.855000	0.063500	0.029000
C928	C	0.688030	0.844970	0.063190	-0.065000
O929	O	0.792780	0.527220	0.135960	-0.185000
C930	C	0.805390	0.519760	0.206460	-0.021000
C931	C	0.986550	0.758040	0.123590	0.114000
C932	C	0.507960	0.771130	0.118800	-0.069000
C933	C	0.521420	0.763350	0.116600	-0.016000
C934	C	0.543720	0.778220	0.112840	0.049000
N935	N	0.556950	0.772400	0.080150	-0.116000
C936	C	0.578830	0.785320	0.074860	0.077000
C937	C	0.589030	0.804880	0.152650	-0.062000
C938	C	0.610400	0.816530	0.149350	-0.019000
C939	C	0.622130	0.809080	0.066480	-0.013000
C940	C	0.611730	0.789490	-0.011440	-0.018000
C941	C	0.590390	0.777700	-0.004790	-0.064000
C942	C	0.645010	0.821540	0.063500	0.029000
C943	C	0.655030	0.843060	0.063190	-0.065000
O944	O	0.972790	0.765560	0.135960	-0.189000
C945	C	0.980240	0.785630	0.206460	-0.019000
C946	C	0.758040	0.771490	0.123590	0.115000
C947	C	0.771130	0.763170	0.118800	-0.073000
C948	C	0.763350	0.741940	0.116600	-0.020000
C949	C	0.778220	0.734510	0.112840	0.042000
N950	N	0.772400	0.715450	0.080150	-0.112000
C951	C	0.785320	0.706490	0.074860	0.080000
C952	C	0.804880	0.715850	0.152650	-0.065000
C953	C	0.816530	0.706130	0.149350	-0.018000
C954	C	0.809080	0.686950	0.066480	-0.013000
C955	C	0.789490	0.677760	-0.011440	-0.018000
C956	C	0.777700	0.687320	-0.004790	-0.061000
C957	C	0.821540	0.676530	0.063500	0.029000
C958	C	0.843060	0.688030	0.063190	-0.065000
O959	O	0.765560	0.792780	0.135960	-0.186000
C960	C	0.785630	0.805390	0.206460	-0.018000
C961	C	0.728510	0.986550	0.123590	0.117000
C962	C	0.736830	0.507960	0.118800	-0.070000
C963	C	0.758060	0.521410	0.116600	-0.021000
C964	C	0.765500	0.543720	0.112840	0.039000
N965	N	0.784550	0.556950	0.080150	-0.114000
C966	C	0.793510	0.578830	0.074860	0.078000
C967	C	0.784160	0.589030	0.152650	-0.065000
C968	C	0.793880	0.610400	0.149350	-0.019000
C969	C	0.813050	0.622130	0.066480	-0.013000
C970	C	0.822250	0.611730	-0.011440	-0.019000
C971	C	0.812690	0.590390	-0.004790	-0.061000
C972	C	0.823470	0.645010	0.063500	0.029000
C973	C	0.811970	0.655030	0.063190	-0.065000
O974	O	0.707230	0.972790	0.135960	-0.182000
C975	C	0.694610	0.980240	0.206460	-0.023000
C976	C	0.513460	0.741970	0.123590	0.115000
C977	C	0.992040	0.728870	0.118800	-0.070000
C978	C	0.978590	0.736650	0.116600	-0.018000
C979	C	0.956290	0.721780	0.112840	0.047000
N980	N	0.943050	0.727600	0.080150	-0.116000
C981	C	0.921170	0.714680	0.074860	0.076000
C982	C	0.910970	0.695130	0.152650	-0.063000
C983	C	0.889600	0.683480	0.149350	-0.018000
C984	C	0.877870	0.690930	0.066480	-0.013000
C985	C	0.888270	0.710520	-0.011440	-0.019000
C986	C	0.909620	0.722300	-0.004790	-0.065000
C987	C	0.855000	0.678470	0.063500	0.029000
C988	C	0.844970	0.656940	0.063190	-0.065000
O989	O	0.527220	0.734450	0.135960	-0.189000
C990	C	0.519760	0.714370	0.206460	-0.019000
C991	C	0.988690	0.972390	0.617610	0.114000
C992	C	0.975600	0.980710	0.612810	-0.073000
C993	C	0.983380	0.501940	0.610610	-0.020000
C994	C	0.968510	0.509370	0.606850	0.042000
N995	N	0.974330	0.528430	0.574170	-0.113000
C996	C	0.961410	0.537390	0.568870	0.080000
C997	C	0.941850	0.528030	0.646670	-0.065000
C998	C	0.930200	0.537750	0.643360	-0.018000
C999	C	0.937650	0.556930	0.560500	-0.013000
C1000	C	0.957240	0.566120	0.482580	-0.018000
C1001	C	0.969030	0.556560	0.489230	-0.061000
C1002	C	0.925190	0.567350	0.557520	0.029000
C1003	C	0.903670	0.555840	0.557200	-0.065000
O1004	O	0.981170	0.951100	0.629970	-0.186000
C1005	C	0.961100	0.938490	0.700480	-0.019000
C1006	C	0.518220	0.757330	0.617610	0.117000
C1007	C	0.509900	0.735910	0.612810	-0.070000
C1008	C	0.988670	0.722460	0.610610	-0.022000
C1009	C	0.981230	0.700160	0.606850	0.038000
N1010	N	0.962180	0.686930	0.574170	-0.115000
C1011	C	0.953220	0.665050	0.568870	0.077000
C1012	C	0.962570	0.654850	0.646670	-0.065000
C1013	C	0.952850	0.633480	0.643360	-0.019000
C1014	C	0.933680	0.621750	0.560500	-0.013000
C1015	C	0.924480	0.632150	0.482580	-0.020000
C1016	C	0.934040	0.653490	0.489230	-0.061000
C1017	C	0.923260	0.598870	0.557520	0.029000
C1018	C	0.934760	0.588850	0.557200	-0.065000
O1019	O	0.539500	0.771090	0.629970	-0.183000
C1020	C	0.552120	0.763640	0.700480	-0.022000
C1021	C	0.733270	0.501910	0.617610	0.114000
C1022	C	0.754690	0.515010	0.612810	-0.071000
C1023	C	0.768140	0.507230	0.610610	-0.018000
C1024	C	0.790440	0.522100	0.606850	0.046000
N1025	N	0.803680	0.516280	0.574170	-0.117000
C1026	C	0.825560	0.529200	0.568870	0.074000
C1027	C	0.835760	0.548750	0.646670	-0.063000
C1028	C	0.857130	0.560400	0.643360	-0.019000
C1029	C	0.868850	0.552950	0.560500	-0.013000
C1030	C	0.858460	0.533360	0.482580	-0.019000
C1031	C	0.837110	0.521580	0.489230	-0.065000
C1032	C	0.891730	0.565410	0.557520	0.029000
C1033	C	0.901760	0.586940	0.557200	-0.065000
O1034	O	0.719510	0.509430	0.629970	-0.190000
C1035	C	0.726970	0.529510	0.700480	-0.019000
C1036	C	0.504760	0.515370	0.617610	0.115000
C1037	C	0.517860	0.507040	0.612810	-0.073000
C1038	C	0.510080	0.985820	0.610610	-0.020000
C1039	C	0.524950	0.978380	0.606850	0.042000
N1040	N	0.519130	0.959330	0.574170	-0.113000
C1041	C	0.532050	0.950370	0.568870	0.080000
C1042	C	0.551600	0.959720	0.646670	-0.065000
C1043	C	0.563250	0.950000	0.643360	-0.018000
C1044	C	0.555800	0.930830	0.560500	-0.013000
C1045	C	0.536210	0.921630	0.482580	-0.018000
C1046	C	0.524430	0.931190	0.489230	-0.061000
C1047	C	0.568260	0.920410	0.557520	0.029000
C1048	C	0.589790	0.931910	0.557200	-0.065000
O1049	O	0.512280	0.536650	0.629970	-0.186000
C1050	C	0.532360	0.549270	0.700480	-0.018000
C1051	C	0.975240	0.730420	0.617610	0.116000
C1052	C	0.983560	0.751840	0.612810	-0.070000
C1053	C	0.504790	0.765290	0.610610	-0.020000
C1054	C	0.512220	0.787590	0.606850	0.039000
N1055	N	0.531280	0.800830	0.574170	-0.114000
C1056	C	0.540240	0.822710	0.568870	0.076000
C1057	C	0.530880	0.832910	0.646670	-0.066000
C1058	C	0.540600	0.854280	0.643360	-0.019000
C1059	C	0.559780	0.866000	0.560500	-0.013000
C1060	C	0.568970	0.855610	0.482580	-0.020000
C1061	C	0.559410	0.834260	0.489230	-0.061000
C1062	C	0.570200	0.888880	0.557520	0.029000
C1063	C	0.558700	0.898910	0.557200	-0.065000
O1064	O	0.953950	0.716660	0.629970	-0.185000
C1065	C	0.941340	0.724120	0.700480	-0.022000
C1066	C	0.760180	0.985840	0.617610	0.113000
C1067	C	0.738760	0.972750	0.612810	-0.070000
C1068	C	0.725310	0.980520	0.610610	-0.017000
C1069	C	0.703010	0.965660	0.606850	0.048000
N1070	N	0.689780	0.971480	0.574170	-0.117000
C1071	C	0.667900	0.958560	0.568870	0.076000
C1072	C	0.657700	0.939000	0.646670	-0.063000
C1073	C	0.636330	0.927350	0.643360	-0.019000
C1074	C	0.624600	0.934800	0.560500	-0.013000
C1075	C	0.635000	0.954390	0.482580	-0.019000
C1076	C	0.656340	0.966180	0.489230	-0.065000
C1077	C	0.601720	0.922340	0.557520	0.029000
C1078	C	0.591700	0.900810	0.557200	-0.065000
O1079	O	0.773940	0.978320	0.629970	-0.190000
C1080	C	0.766490	0.958250	0.700480	-0.019000
H1081	H	0.711550	0.726240	0.116620	0.047000
H1082	H	0.704850	0.754400	0.138970	0.020000
H1083	H	0.688700	0.768550	0.218880	0.044000
H1084	H	0.667730	0.786310	0.214230	0.031000
H1085	H	0.716920	0.837670	-0.080900	0.032000
H1086	H	0.738320	0.820530	-0.064730	0.053000
H1087	H	0.648810	0.794520	0.062660	0.042000
H1088	H	0.712610	0.679370	0.251250	0.041000
H1089	H	0.702490	0.691730	0.100560	0.035000
H1090	H	0.712000	0.702660	0.323860	0.036000
H1091	H	0.773760	0.985310	0.116620	0.051000
H1092	H	0.745600	0.950450	0.138970	0.020000
H1093	H	0.731450	0.920150	0.218880	0.042000
H1094	H	0.713700	0.881420	0.214230	0.031000
H1095	H	0.662340	0.879250	-0.080900	0.032000
H1096	H	0.679480	0.917790	-0.064730	0.050000
H1097	H	0.705490	0.854300	0.062660	0.042000
H1098	H	0.815670	0.519400	0.097840	0.043000
H1099	H	0.795300	0.503640	0.260530	0.045000
H1100	H	0.815280	0.530300	0.317280	0.051000
H1101	H	0.514690	0.788450	0.116620	0.051000
H1102	H	0.549550	0.795150	0.138970	0.025000
H1103	H	0.579860	0.811310	0.218880	0.045000
H1104	H	0.618580	0.832280	0.214230	0.031000
H1105	H	0.620750	0.783090	-0.080900	0.032000
H1106	H	0.582210	0.761690	-0.064730	0.047000
H1107	H	0.645710	0.851190	0.062660	0.043000
H1108	H	0.988110	0.797470	0.097570	0.035000
H1109	H	0.991680	0.788490	0.316470	0.036000
H1110	H	0.966880	0.786960	0.261630	0.038000
H1111	H	0.788450	0.773760	0.116620	0.046000
H1112	H	0.795150	0.745600	0.138970	0.020000
H1113	H	0.811310	0.731450	0.218880	0.044000
H1114	H	0.832280	0.713700	0.214230	0.031000
H1115	H	0.783090	0.662340	-0.080900	0.032000
H1116	H	0.761690	0.679480	-0.064730	0.054000
H1117	H	0.851190	0.705490	0.062660	0.042000
H1118	H	0.796220	0.815830	0.098300	0.038000
H1119	H	0.791750	0.795300	0.258820	0.033000
H1120	H	0.784940	0.815120	0.318540	0.041000
H1121	H	0.726240	0.514690	0.116620	0.048000
H1122	H	0.754400	0.549550	0.138970	0.018000
H1123	H	0.768550	0.579860	0.218880	0.042000
H1124	H	0.786310	0.618580	0.214230	0.031000
H1125	H	0.837670	0.620750	-0.080900	0.032000
H1126	H	0.820530	0.582210	-0.064730	0.050000
H1127	H	0.794520	0.645710	0.062660	0.042000
H1128	H	0.682530	0.968150	0.296860	0.053000
H1129	H	0.686750	0.983680	0.093880	0.043000
H1130	H	0.704480	0.994840	0.284930	0.048000
H1131	H	0.985310	0.711550	0.116620	0.051000
H1132	H	0.950450	0.704850	0.138970	0.027000
H1133	H	0.920150	0.688700	0.218880	0.047000
H1134	H	0.881420	0.667730	0.214230	0.032000
H1135	H	0.879250	0.716920	-0.080900	0.032000
H1136	H	0.917790	0.738320	-0.064730	0.049000
H1137	H	0.854300	0.648810	0.062660	0.043000
H1138	H	0.532400	0.714000	0.286200	0.038000
H1139	H	0.514880	0.702840	0.093810	0.036000
H1140	H	0.506060	0.710250	0.295650	0.036000
H1141	H	0.958280	0.970120	0.610640	0.047000
H1142	H	0.951580	0.998280	0.632980	0.020000
H1143	H	0.935420	0.512430	0.712890	0.044000
H1144	H	0.914450	0.530180	0.708240	0.031000
H1145	H	0.963640	0.581540	0.413110	0.032000
H1146	H	0.985040	0.564400	0.429280	0.053000
H1147	H	0.895540	0.538390	0.556680	0.042000
H1148	H	0.959330	0.923250	0.745260	0.041000
H1149	H	0.949210	0.935610	0.594570	0.035000
H1150	H	0.958730	0.946530	0.817870	0.036000
H1151	H	0.520490	0.729190	0.610640	0.047000
H1152	H	0.992330	0.694320	0.632980	0.018000
H1153	H	0.978180	0.664020	0.712890	0.042000
H1154	H	0.960420	0.625290	0.708240	0.031000
H1155	H	0.909060	0.623130	0.413110	0.032000
H1156	H	0.926200	0.661670	0.429280	0.049000
H1157	H	0.952210	0.598170	0.556680	0.042000
H1158	H	0.562400	0.763280	0.591860	0.042000
H1159	H	0.542020	0.747510	0.754550	0.043000
H1160	H	0.562000	0.774180	0.811300	0.052000
H1161	H	0.761420	0.532330	0.610640	0.050000
H1162	H	0.796280	0.539030	0.632980	0.026000
H1163	H	0.826580	0.555180	0.712890	0.046000
H1164	H	0.865310	0.576150	0.708240	0.031000
H1165	H	0.867480	0.526960	0.413110	0.031000
H1166	H	0.828930	0.505560	0.429280	0.048000
H1167	H	0.892430	0.595070	0.556680	0.042000
H1168	H	0.734830	0.541340	0.591580	0.034000
H1169	H	0.738410	0.532360	0.810480	0.035000
H1170	H	0.713610	0.530840	0.755640	0.037000
H1171	H	0.535180	0.517640	0.610640	0.046000
H1172	H	0.541880	0.989480	0.632980	0.020000
H1173	H	0.558030	0.975320	0.712890	0.044000
H1174	H	0.579000	0.957570	0.708240	0.031000
H1175	H	0.529810	0.906210	0.413110	0.032000
H1176	H	0.508410	0.923350	0.429280	0.053000
H1177	H	0.597920	0.949360	0.556680	0.042000
H1178	H	0.542940	0.559700	0.592310	0.038000
H1179	H	0.538480	0.539180	0.752840	0.032000
H1180	H	0.531670	0.558990	0.812560	0.040000
H1181	H	0.972970	0.758570	0.610640	0.050000
H1182	H	0.501130	0.793430	0.632980	0.019000
H1183	H	0.515280	0.823730	0.712890	0.041000
H1184	H	0.533030	0.862460	0.708240	0.031000
H1185	H	0.584390	0.864630	0.413110	0.031000
H1186	H	0.567250	0.826080	0.429280	0.048000
H1187	H	0.541240	0.889580	0.556680	0.042000
H1188	H	0.929250	0.712020	0.790870	0.047000
H1189	H	0.933480	0.727560	0.587890	0.042000
H1190	H	0.951210	0.738720	0.778940	0.046000
H1191	H	0.732040	0.955430	0.610640	0.050000
H1192	H	0.697180	0.948730	0.632980	0.024000
H1193	H	0.666870	0.932570	0.712890	0.044000
H1194	H	0.628140	0.911600	0.708240	0.031000
H1195	H	0.625980	0.960790	0.413110	0.031000
H1196	H	0.664520	0.982190	0.429280	0.046000
H1197	H	0.601020	0.892690	0.556680	0.042000
H1198	H	0.779120	0.957870	0.780220	0.037000
H1199	H	0.761610	0.946720	0.587830	0.035000
H1200	H	0.752780	0.954130	0.789660	0.035000
loop_
_geom_bond_atom_site_label_1
_geom_bond_atom_site_label_2
_geom_bond_distance
_geom_bond_site_symmetry_2
_ccdc_geom_bond_type
C1     C2      1.410   .     A
C1     C48     1.412   .     A
C1     O14     1.412   .     S
C2     C3      1.402   .     A
C2     H181    1.140   .     S
C3     C46     1.412   .     A
C3     C4      1.483   .     S
C4     N5      1.299   .     D
C4     H182    1.140   .     S
N5     C6      1.436   .     S
C6     C7      1.406   .     A
C6     C11     1.397   .     A
C7     C8      1.397   .     A
C7     H183    1.140   .     S
C8     C9      1.410   .     A
C8     H184    1.140   .     S
C9     C10     1.409   .     A
C9     C12     1.496   .     S
C10    C11     1.397   .     A
C10    H185    1.140   .     S
C11    H186    1.140   .     S
C12    C13     1.406   .     A
C12    C28     1.406   .     A
C13    C42     1.406   .     A
C13    H187    1.140   .     S
O14    C15     1.428   .     S
C15    H188    1.140   .     S
C15    H189    1.140   .     S
C15    H190    1.140   .     S
C16    C63     1.412   .     A
C16    O29     1.412   .     S
C16    C617    1.410   1_545 A
C17    C18     1.402   .     A
C17    H191    1.140   .     S
C17    C616    1.410   .     A
C18    C61     1.412   .     A
C18    C19     1.483   .     S
C19    N20     1.299   .     D
C19    H192    1.140   .     S
N20    C21     1.436   .     S
C21    C22     1.406   .     A
C21    C26     1.397   .     A
C22    C23     1.397   .     A
C22    H193    1.140   .     S
C23    C24     1.410   .     A
C23    H194    1.140   .     S
C24    C25     1.409   .     A
C24    C27     1.495   .     S
C25    C26     1.397   .     A
C25    H195    1.140   .     S
C26    H196    1.140   .     S
C27    C28     1.406   .     A
C27    C43     1.406   .     A
C28    H197    1.140   .     S
O29    C30     1.428   .     S
C30    H198    1.140   .     S
C30    H199    1.140   .     S
C30    H200    1.140   .     S
C31    C78     1.412   .     A
C31    O44     1.412   .     S
C31    C332    1.410   .     S
C32    C33     1.403   .     A
C32    H201    1.140   .     S
C32    C331    1.410   1_455 S
C33    C76     1.412   .     A
C33    C34     1.483   .     S
C34    N35     1.299   .     D
C34    H202    1.140   .     S
N35    C36     1.436   .     S
C36    C37     1.406   .     A
C36    C41     1.397   .     A
C37    C38     1.397   .     A
C37    H203    1.140   .     S
C38    C39     1.410   .     A
C38    H204    1.140   .     S
C39    C40     1.409   .     A
C39    C42     1.495   .     S
C40    C41     1.397   .     A
C40    H205    1.140   .     S
C41    H206    1.140   .     S
C42    C43     1.406   .     A
C43    H207    1.140   .     S
O44    C45     1.428   .     S
C45    H208    1.140   .     S
C45    H209    1.140   .     S
C45    H210    1.140   .     S
C46    C47     1.410   .     A
C46    O59     1.412   .     S
C47    C48     1.402   .     A
C47    H211    1.140   .     S
C48    C49     1.483   .     S
C49    N50     1.299   .     D
C49    H212    1.140   .     S
N50    C51     1.436   .     S
C51    C52     1.406   .     A
C51    C56     1.397   .     A
C52    C53     1.397   .     A
C52    H213    1.140   .     S
C53    C54     1.410   .     A
C53    H214    1.140   .     S
C54    C55     1.409   .     A
C54    C57     1.496   .     S
C55    C56     1.397   .     A
C55    H215    1.140   .     S
C56    H216    1.140   .     S
C57    C58     1.406   .     A
C57    C73     1.406   .     A
C58    C87     1.406   .     A
C58    H217    1.140   .     S
O59    C60     1.428   .     S
C60    H218    1.140   .     S
C60    H219    1.140   .     S
C60    H220    1.140   .     S
C61    O74     1.412   .     S
C61    C662    1.410   .     S
C62    C63     1.402   .     A
C62    H221    1.140   .     S
C62    C661    1.410   1_545 S
C63    C64     1.483   .     S
C64    N65     1.299   .     D
C64    H222    1.140   .     S
N65    C66     1.436   .     S
C66    C67     1.406   .     A
C66    C71     1.397   .     A
C67    C68     1.397   .     A
C67    H223    1.140   .     S
C68    C69     1.410   .     A
C68    H224    1.140   .     S
C69    C70     1.409   .     A
C69    C72     1.495   .     S
C70    C71     1.397   .     A
C70    H225    1.140   .     S
C71    H226    1.140   .     S
C72    C73     1.406   .     A
C72    C88     1.406   .     A
C73    H227    1.140   .     S
O74    C75     1.428   .     S
C75    H228    1.140   .     S
C75    H229    1.140   .     S
C75    H230    1.140   .     S
C76    O89     1.412   .     S
C76    C377    1.410   1_455 S
C77    C78     1.403   .     A
C77    H231    1.140   .     S
C77    C376    1.410   .     S
C78    C79     1.483   .     S
C79    N80     1.299   .     D
C79    H232    1.140   .     S
N80    C81     1.436   .     S
C81    C82     1.406   .     A
C81    C86     1.397   .     A
C82    C83     1.397   .     A
C82    H233    1.140   .     S
C83    C84     1.410   .     A
C83    H234    1.140   .     S
C84    C85     1.409   .     A
C84    C87     1.495   .     S
C85    C86     1.397   .     A
C85    H235    1.140   .     S
C86    H236    1.140   .     S
C87    C88     1.406   .     A
C88    H237    1.140   .     S
O89    C90     1.428   .     S
C90    H238    1.140   .     S
C90    H239    1.140   .     S
C90    H240    1.140   .     S
C91    C92     1.410   .     A
C91    C438    1.412   .     A
C91    O104    1.412   .     S
C92    C693    1.402   .     A
C92    H241    1.140   .     S
C93    C692    1.402   1_545 A
C93    C436    1.412   .     A
C93    C94     1.483   .     S
C94    N95     1.299   .     D
C94    H842    1.140   1_545 S
N95    C96     1.436   .     S
C96    C97     1.406   .     A
C96    C101    1.397   .     A
C97    C98     1.397   .     A
C97    H243    1.140   .     S
C98    C99     1.410   .     A
C98    H244    1.140   .     S
C99    C100    1.409   .     A
C99    C102    1.496   .     S
C100   C101    1.397   .     A
C100   H245    1.140   .     S
C101   H246    1.140   .     S
C102   C103    1.406   .     A
C102   C118    1.406   .     A
C103   C132    1.407   .     A
C103   H247    1.140   .     S
O104   C105    1.428   .     S
C105   H248    1.140   .     S
C105   H249    1.140   .     S
C105   H250    1.140   .     S
C106   C153    1.412   .     A
C106   O119    1.412   .     S
C106   C107    1.410   .     S
C107   C408    1.402   1_455 A
C107   H251    1.140   .     S
C108   C407    1.402   .     A
C108   C151    1.412   .     A
C108   C109    1.483   .     S
C109   N110    1.299   .     D
C109   H252    1.140   .     S
N110   C111    1.436   .     S
C111   C112    1.406   .     A
C111   C116    1.397   .     A
C112   C113    1.397   .     A
C112   H253    1.140   .     S
C113   C114    1.409   .     A
C113   H254    1.140   .     S
C114   C115    1.409   .     A
C114   C117    1.495   .     S
C115   C116    1.397   .     A
C115   H255    1.140   .     S
C116   H256    1.140   .     S
C117   C118    1.406   .     A
C117   C133    1.406   .     A
C118   H257    1.140   .     S
O119   C120    1.428   .     S
C120   H258    1.140   .     S
C120   H259    1.140   .     S
C120   H260    1.140   .     S
C121   C768    1.412   1_545 A
C121   O134    1.412   .     S
C121   C122    1.410   .     A
C122   C123    1.403   .     A
C122   H261    1.140   .     S
C123   C766    1.412   1_545 A
C123   C124    1.482   .     S
C124   N125    1.299   .     D
C124   H262    1.140   .     S
N125   C126    1.436   .     S
C126   C127    1.406   .     A
C126   C131    1.397   .     A
C127   C128    1.397   .     A
C127   H263    1.140   .     S
C128   C129    1.410   .     A
C128   H264    1.140   .     S
C129   C130    1.409   .     A
C129   C132    1.496   .     S
C130   C131    1.397   .     A
C130   H265    1.140   .     S
C131   H266    1.140   .     S
C132   C133    1.406   .     A
C133   H267    1.140   .     S
O134   C135    1.428   .     S
C135   H268    1.140   .     S
C135   H269    1.140   .     S
C135   H270    1.140   .     S
C136   C393    1.412   1_455 A
C136   C137    1.410   .     A
C136   O149    1.412   .     S
C137   C738    1.402   1_545 A
C137   H271    1.140   .     S
C138   C391    1.412   1_455 A
C138   C737    1.402   .     A
C138   C139    1.483   .     S
C139   N140    1.299   .     D
C139   H272    1.140   .     S
N140   C141    1.436   .     S
C141   C142    1.406   .     A
C141   C146    1.397   .     A
C142   C143    1.397   .     A
C142   H273    1.140   .     S
C143   C144    1.409   .     A
C143   H274    1.140   .     S
C144   C145    1.409   .     A
C144   C147    1.496   .     S
C145   C146    1.397   .     A
C145   H275    1.140   .     S
C146   H276    1.140   .     S
C147   C148    1.406   .     A
C147   C163    1.406   .     A
C148   C177    1.406   .     A
C148   H277    1.140   .     S
O149   C150    1.428   .     S
C150   H278    1.140   .     S
C150   H279    1.140   .     S
C150   H280    1.140   .     S
C151   O164    1.412   .     S
C151   C152    1.410   .     A
C152   C453    1.402   .     A
C152   H281    1.140   .     S
C153   C452    1.402   1_455 A
C153   C154    1.483   .     S
C154   N155    1.299   .     D
C154   H282    1.140   .     S
N155   C156    1.436   .     S
C156   C157    1.406   .     A
C156   C161    1.397   .     A
C157   C158    1.397   .     A
C157   H283    1.140   .     S
C158   C159    1.410   .     A
C158   H284    1.140   .     S
C159   C160    1.409   .     A
C159   C162    1.496   .     S
C160   C161    1.397   .     A
C160   H285    1.140   .     S
C161   H286    1.140   .     S
C162   C163    1.406   .     A
C162   C178    1.406   .     A
C163   H287    1.140   .     S
O164   C165    1.428   .     S
C165   H288    1.140   .     S
C165   H289    1.140   .     S
C165   H290    1.140   .     S
C166   C723    1.412   .     A
C166   O179    1.412   .     S
C166   C167    1.410   .     A
C167   C168    1.402   .     A
C167   H291    1.140   .     S
C168   C721    1.412   .     A
C168   C169    1.483   .     S
C169   N170    1.299   .     D
C169   H292    1.140   .     S
N170   C171    1.436   .     S
C171   C172    1.406   .     A
C171   C176    1.397   .     A
C172   C173    1.397   .     A
C172   H293    1.140   .     S
C173   C174    1.410   .     A
C173   H294    1.140   .     S
C174   C175    1.409   .     A
C174   C177    1.495   .     S
C175   C176    1.397   .     A
C175   H295    1.140   .     S
C176   H296    1.140   .     S
C177   C178    1.406   .     A
C178   H297    1.140   .     S
O179   C180    1.428   .     S
C180   H298    1.140   .     S
C180   H299    1.140   .     S
C180   H300    1.140   .     S
H242   C694    1.140   .     S
C301   C302    1.410   .     A
C301   C348    1.412   .     A
C301   O314    1.412   .     S
C302   C303    1.402   .     A
C302   H481    1.140   .     S
C303   C346    1.412   .     A
C303   C304    1.483   .     S
C304   N305    1.299   .     D
C304   H482    1.140   .     S
N305   C306    1.436   .     S
C306   C307    1.406   .     A
C306   C311    1.397   .     A
C307   C308    1.397   .     A
C307   H483    1.140   .     S
C308   C309    1.410   .     A
C308   H484    1.140   .     S
C309   C310    1.409   .     A
C309   C312    1.496   .     S
C310   C311    1.397   .     A
C310   H485    1.140   .     S
C311   H486    1.140   .     S
C312   C313    1.406   .     A
C312   C328    1.406   .     A
C313   C342    1.406   .     A
C313   H487    1.140   .     S
O314   C315    1.428   .     S
C315   H488    1.140   .     S
C315   H489    1.140   .     S
C315   H490    1.140   .     S
C316   C363    1.412   .     A
C316   O329    1.412   .     S
C316   C917    1.410   1_545 A
C317   C318    1.402   .     A
C317   H491    1.140   .     S
C317   C916    1.410   .     A
C318   C361    1.412   .     A
C318   C319    1.483   .     S
C319   N320    1.299   .     D
C319   H492    1.140   .     S
N320   C321    1.436   .     S
C321   C322    1.406   .     A
C321   C326    1.397   .     A
C322   C323    1.397   .     A
C322   H493    1.140   .     S
C323   C324    1.410   .     A
C323   H494    1.140   .     S
C324   C325    1.409   .     A
C324   C327    1.495   .     S
C325   C326    1.397   .     A
C325   H495    1.140   .     S
C326   H496    1.140   .     S
C327   C328    1.406   .     A
C327   C343    1.406   .     A
C328   H497    1.140   .     S
O329   C330    1.428   .     S
C330   H498    1.140   .     S
C330   H499    1.140   .     S
C330   H500    1.140   .     S
C331   C378    1.412   .     A
C331   O344    1.412   .     S
C331   C32     1.410   1_655 S
C332   C333    1.403   .     A
C332   H501    1.140   .     S
C333   C376    1.412   .     A
C333   C334    1.483   .     S
C334   N335    1.299   .     D
C334   H502    1.140   .     S
N335   C336    1.436   .     S
C336   C337    1.406   .     A
C336   C341    1.397   .     A
C337   C338    1.397   .     A
C337   H503    1.140   .     S
C338   C339    1.410   .     A
C338   H504    1.140   .     S
C339   C340    1.409   .     A
C339   C342    1.495   .     S
C340   C341    1.397   .     A
C340   H505    1.140   .     S
C341   H506    1.140   .     S
C342   C343    1.406   .     A
C343   H507    1.140   .     S
O344   C345    1.428   .     S
C345   H508    1.140   .     S
C345   H509    1.140   .     S
C345   H510    1.140   .     S
C346   C347    1.410   .     A
C346   O359    1.412   .     S
C347   C348    1.402   .     A
C347   H511    1.140   .     S
C348   C349    1.483   .     S
C349   N350    1.299   .     D
C349   H512    1.140   .     S
N350   C351    1.436   .     S
C351   C352    1.406   .     A
C351   C356    1.397   .     A
C352   C353    1.397   .     A
C352   H513    1.140   .     S
C353   C354    1.410   .     A
C353   H514    1.140   .     S
C354   C355    1.409   .     A
C354   C357    1.496   .     S
C355   C356    1.397   .     A
C355   H515    1.140   .     S
C356   H516    1.140   .     S
C357   C358    1.406   .     A
C357   C373    1.406   .     A
C358   C387    1.406   .     A
C358   H517    1.140   .     S
O359   C360    1.428   .     S
C360   H518    1.140   .     S
C360   H519    1.140   .     S
C360   H520    1.140   .     S
C361   O374    1.412   .     S
C361   C962    1.410   .     S
C362   C363    1.402   .     A
C362   H521    1.140   .     S
C362   C961    1.410   1_545 S
C363   C364    1.483   .     S
C364   N365    1.299   .     D
C364   H522    1.140   .     S
N365   C366    1.436   .     S
C366   C367    1.406   .     A
C366   C371    1.397   .     A
C367   C368    1.397   .     A
C367   H523    1.140   .     S
C368   C369    1.410   .     A
C368   H524    1.140   .     S
C369   C370    1.409   .     A
C369   C372    1.495   .     S
C370   C371    1.397   .     A
C370   H525    1.140   .     S
C371   H526    1.140   .     S
C372   C373    1.406   .     A
C372   C388    1.406   .     A
C373   H527    1.140   .     S
O374   C375    1.428   .     S
C375   H528    1.140   .     S
C375   H529    1.140   .     S
C375   H530    1.140   .     S
C376   O389    1.412   .     S
C377   C378    1.403   .     A
C377   H531    1.140   .     S
C377   C76     1.410   1_655 S
C378   C379    1.483   .     S
C379   N380    1.299   .     D
C379   H532    1.140   .     S
N380   C381    1.436   .     S
C381   C382    1.406   .     A
C381   C386    1.397   .     A
C382   C383    1.397   .     A
C382   H533    1.140   .     S
C383   C384    1.410   .     A
C383   H534    1.140   .     S
C384   C385    1.409   .     A
C384   C387    1.495   .     S
C385   C386    1.397   .     A
C385   H535    1.140   .     S
C386   H536    1.140   .     S
C387   C388    1.406   .     A
C388   H537    1.140   .     S
O389   C390    1.428   .     S
C390   H538    1.140   .     S
C390   H539    1.140   .     S
C390   H540    1.140   .     S
C391   C392    1.410   .     A
C391   C138    1.412   1_655 A
C391   O404    1.412   .     S
C392   C993    1.402   .     A
C392   H541    1.140   .     S
C393   C992    1.402   1_545 A
C393   C136    1.412   1_655 A
C393   C394    1.483   .     S
C394   N395    1.299   .     D
C394   H1142   1.140   1_545 S
N395   C396    1.436   .     S
C396   C397    1.406   .     A
C396   C401    1.397   .     A
C397   C398    1.397   .     A
C397   H543    1.140   .     S
C398   C399    1.410   .     A
C398   H544    1.140   .     S
C399   C400    1.409   .     A
C399   C402    1.496   .     S
C400   C401    1.397   .     A
C400   H545    1.140   .     S
C401   H546    1.140   .     S
C402   C403    1.406   .     A
C402   C418    1.406   .     A
C403   C432    1.407   .     A
C403   H547    1.140   .     S
O404   C405    1.428   .     S
C405   H548    1.140   .     S
C405   H549    1.140   .     S
C405   H550    1.140   .     S
C406   C453    1.412   .     A
C406   O419    1.412   .     S
C406   C407    1.410   .     S
C407   H551    1.140   .     S
C408   C107    1.402   1_655 A
C408   C451    1.412   .     A
C408   C409    1.483   .     S
C409   N410    1.299   .     D
C409   H552    1.140   .     S
N410   C411    1.436   .     S
C411   C412    1.406   .     A
C411   C416    1.397   .     A
C412   C413    1.397   .     A
C412   H553    1.140   .     S
C413   C414    1.409   .     A
C413   H554    1.140   .     S
C414   C415    1.409   .     A
C414   C417    1.495   .     S
C415   C416    1.397   .     A
C415   H555    1.140   .     S
C416   H556    1.140   .     S
C417   C418    1.406   .     A
C417   C433    1.406   .     A
C418   H557    1.140   .     S
O419   C420    1.428   .     S
C420   H558    1.140   .     S
C420   H559    1.140   .     S
C420   H560    1.140   .     S
C421   C1068   1.412   1_545 A
C421   O434    1.412   .     S
C421   C422    1.410   .     A
C422   C423    1.403   .     A
C422   H561    1.140   .     S
C423   C1066   1.412   1_545 A
C423   C424    1.482   .     S
C424   N425    1.299   .     D
C424   H562    1.140   .     S
N425   C426    1.436   .     S
C426   C427    1.406   .     A
C426   C431    1.397   .     A
C427   C428    1.397   .     A
C427   H563    1.140   .     S
C428   C429    1.410   .     A
C428   H564    1.140   .     S
C429   C430    1.409   .     A
C429   C432    1.496   .     S
C430   C431    1.397   .     A
C430   H565    1.140   .     S
C431   H566    1.140   .     S
C432   C433    1.406   .     A
C433   H567    1.140   .     S
O434   C435    1.428   .     S
C435   H568    1.140   .     S
C435   H569    1.140   .     S
C435   H570    1.140   .     S
C436   C437    1.410   .     A
C436   O449    1.412   .     S
C437   C1038   1.402   1_545 A
C437   H571    1.140   .     S
C438   C1037   1.402   .     A
C438   C439    1.483   .     S
C439   N440    1.299   .     D
C439   H572    1.140   .     S
N440   C441    1.436   .     S
C441   C442    1.406   .     A
C441   C446    1.397   .     A
C442   C443    1.397   .     A
C442   H573    1.140   .     S
C443   C444    1.409   .     A
C443   H574    1.140   .     S
C444   C445    1.409   .     A
C444   C447    1.496   .     S
C445   C446    1.397   .     A
C445   H575    1.140   .     S
C446   H576    1.140   .     S
C447   C448    1.406   .     A
C447   C463    1.406   .     A
C448   C477    1.406   .     A
C448   H577    1.140   .     S
O449   C450    1.428   .     S
C450   H578    1.140   .     S
C450   H579    1.140   .     S
C450   H580    1.140   .     S
C451   O464    1.412   .     S
C451   C452    1.410   .     A
C452   C153    1.402   1_655 A
C452   H581    1.140   .     S
C453   C454    1.483   .     S
C454   N455    1.299   .     D
C454   H582    1.140   .     S
N455   C456    1.436   .     S
C456   C457    1.406   .     A
C456   C461    1.397   .     A
C457   C458    1.397   .     A
C457   H583    1.140   .     S
C458   C459    1.410   .     A
C458   H584    1.140   .     S
C459   C460    1.409   .     A
C459   C462    1.496   .     S
C460   C461    1.397   .     A
C460   H585    1.140   .     S
C461   H586    1.140   .     S
C462   C463    1.406   .     A
C462   C478    1.406   .     A
C463   H587    1.140   .     S
O464   C465    1.428   .     S
C465   H588    1.140   .     S
C465   H589    1.140   .     S
C465   H590    1.140   .     S
C466   C1023   1.412   .     A
C466   O479    1.412   .     S
C466   C467    1.410   .     A
C467   C468    1.402   .     A
C467   H591    1.140   .     S
C468   C1021   1.412   .     A
C468   C469    1.483   .     S
C469   N470    1.299   .     D
C469   H592    1.140   .     S
N470   C471    1.436   .     S
C471   C472    1.406   .     A
C471   C476    1.397   .     A
C472   C473    1.397   .     A
C472   H593    1.140   .     S
C473   C474    1.410   .     A
C473   H594    1.140   .     S
C474   C475    1.409   .     A
C474   C477    1.495   .     S
C475   C476    1.397   .     A
C475   H595    1.140   .     S
C476   H596    1.140   .     S
C477   C478    1.406   .     A
C478   H597    1.140   .     S
O479   C480    1.428   .     S
C480   H598    1.140   .     S
C480   H599    1.140   .     S
C480   H600    1.140   .     S
H542   C994    1.140   .     S
C601   C602    1.410   .     A
C601   C648    1.412   .     A
C601   O614    1.412   .     S
C602   C603    1.402   .     A
C602   H781    1.140   .     S
C603   C646    1.412   .     A
C603   C604    1.483   .     S
C604   N605    1.299   .     D
C604   H782    1.140   .     S
N605   C606    1.436   .     S
C606   C607    1.406   .     A
C606   C611    1.397   .     A
C607   C608    1.397   .     A
C607   H783    1.140   .     S
C608   C609    1.410   .     A
C608   H784    1.140   .     S
C609   C610    1.409   .     A
C609   C612    1.496   .     S
C610   C611    1.397   .     A
C610   H785    1.140   .     S
C611   H786    1.140   .     S
C612   C613    1.406   .     A
C612   C628    1.406   .     A
C613   C642    1.406   .     A
C613   H787    1.140   .     S
O614   C615    1.428   .     S
C615   H788    1.140   .     S
C615   H789    1.140   .     S
C615   H790    1.140   .     S
C616   C663    1.412   .     A
C616   O629    1.412   .     S
C617   C618    1.402   .     A
C617   H791    1.140   .     S
C617   C16     1.410   1_565 A
C618   C661    1.412   .     A
C618   C619    1.483   .     S
C619   N620    1.299   .     D
C619   H792    1.140   .     S
N620   C621    1.436   .     S
C621   C622    1.406   .     A
C621   C626    1.397   .     A
C622   C623    1.397   .     A
C622   H793    1.140   .     S
C623   C624    1.410   .     A
C623   H794    1.140   .     S
C624   C625    1.409   .     A
C624   C627    1.495   .     S
C625   C626    1.397   .     A
C625   H795    1.140   .     S
C626   H796    1.140   .     S
C627   C628    1.406   .     A
C627   C643    1.406   .     A
C628   H797    1.140   .     S
O629   C630    1.428   .     S
C630   H798    1.140   .     S
C630   H799    1.140   .     S
C630   H800    1.140   .     S
C631   C678    1.412   .     A
C631   O644    1.412   .     S
C631   C932    1.410   .     S
C632   C633    1.403   .     A
C632   H801    1.140   .     S
C632   C931    1.410   1_455 S
C633   C676    1.412   .     A
C633   C634    1.483   .     S
C634   N635    1.299   .     D
C634   H802    1.140   .     S
N635   C636    1.436   .     S
C636   C637    1.406   .     A
C636   C641    1.397   .     A
C637   C638    1.397   .     A
C637   H803    1.140   .     S
C638   C639    1.410   .     A
C638   H804    1.140   .     S
C639   C640    1.409   .     A
C639   C642    1.495   .     S
C640   C641    1.397   .     A
C640   H805    1.140   .     S
C641   H806    1.140   .     S
C642   C643    1.406   .     A
C643   H807    1.140   .     S
O644   C645    1.428   .     S
C645   H808    1.140   .     S
C645   H809    1.140   .     S
C645   H810    1.140   .     S
C646   C647    1.410   .     A
C646   O659    1.412   .     S
C647   C648    1.402   .     A
C647   H811    1.140   .     S
C648   C649    1.483   .     S
C649   N650    1.299   .     D
C649   H812    1.140   .     S
N650   C651    1.436   .     S
C651   C652    1.406   .     A
C651   C656    1.397   .     A
C652   C653    1.397   .     A
C652   H813    1.140   .     S
C653   C654    1.410   .     A
C653   H814    1.140   .     S
C654   C655    1.409   .     A
C654   C657    1.496   .     S
C655   C656    1.397   .     A
C655   H815    1.140   .     S
C656   H816    1.140   .     S
C657   C658    1.406   .     A
C657   C673    1.406   .     A
C658   C687    1.406   .     A
C658   H817    1.140   .     S
O659   C660    1.428   .     S
C660   H818    1.140   .     S
C660   H819    1.140   .     S
C660   H820    1.140   .     S
C661   O674    1.412   .     S
C661   C62     1.410   1_565 S
C662   C663    1.402   .     A
C662   H821    1.140   .     S
C663   C664    1.483   .     S
C664   N665    1.299   .     D
C664   H822    1.140   .     S
N665   C666    1.436   .     S
C666   C667    1.406   .     A
C666   C671    1.397   .     A
C667   C668    1.397   .     A
C667   H823    1.140   .     S
C668   C669    1.410   .     A
C668   H824    1.140   .     S
C669   C670    1.409   .     A
C669   C672    1.495   .     S
C670   C671    1.397   .     A
C670   H825    1.140   .     S
C671   H826    1.140   .     S
C672   C673    1.406   .     A
C672   C688    1.406   .     A
C673   H827    1.140   .     S
O674   C675    1.428   .     S
C675   H828    1.140   .     S
C675   H829    1.140   .     S
C675   H830    1.140   .     S
C676   O689    1.412   .     S
C676   C977    1.410   1_455 S
C677   C678    1.403   .     A
C677   H831    1.140   .     S
C677   C976    1.410   .     S
C678   C679    1.483   .     S
C679   N680    1.299   .     D
C679   H832    1.140   .     S
N680   C681    1.436   .     S
C681   C682    1.406   .     A
C681   C686    1.397   .     A
C682   C683    1.397   .     A
C682   H833    1.140   .     S
C683   C684    1.410   .     A
C683   H834    1.140   .     S
C684   C685    1.409   .     A
C684   C687    1.495   .     S
C685   C686    1.397   .     A
C685   H835    1.140   .     S
C686   H836    1.140   .     S
C687   C688    1.406   .     A
C688   H837    1.140   .     S
O689   C690    1.428   .     S
C690   H838    1.140   .     S
C690   H839    1.140   .     S
C690   H840    1.140   .     S
C691   C692    1.410   .     A
C691   C1038   1.412   .     A
C691   O704    1.412   .     S
C692   C93     1.402   1_565 A
C692   H841    1.140   .     S
C693   C1036   1.412   .     A
C693   C694    1.483   .     S
C694   N695    1.299   .     D
N695   C696    1.436   .     S
C696   C697    1.406   .     A
C696   C701    1.397   .     A
C697   C698    1.397   .     A
C697   H843    1.140   .     S
C698   C699    1.410   .     A
C698   H844    1.140   .     S
C699   C700    1.409   .     A
C699   C702    1.496   .     S
C700   C701    1.397   .     A
C700   H845    1.140   .     S
C701   H846    1.140   .     S
C702   C703    1.406   .     A
C702   C718    1.406   .     A
C703   C732    1.407   .     A
C703   H847    1.140   .     S
O704   C705    1.428   .     S
C705   H848    1.140   .     S
C705   H849    1.140   .     S
C705   H850    1.140   .     S
C706   C753    1.412   .     A
C706   O719    1.412   .     S
C706   C707    1.410   .     S
C707   C1008   1.402   1_455 A
C707   H851    1.140   .     S
C708   C1007   1.402   .     A
C708   C751    1.412   .     A
C708   C709    1.483   .     S
C709   N710    1.299   .     D
C709   H852    1.140   .     S
N710   C711    1.436   .     S
C711   C712    1.406   .     A
C711   C716    1.397   .     A
C712   C713    1.397   .     A
C712   H853    1.140   .     S
C713   C714    1.409   .     A
C713   H854    1.140   .     S
C714   C715    1.409   .     A
C714   C717    1.495   .     S
C715   C716    1.397   .     A
C715   H855    1.140   .     S
C716   H856    1.140   .     S
C717   C718    1.406   .     A
C717   C733    1.406   .     A
C718   H857    1.140   .     S
O719   C720    1.428   .     S
C720   H858    1.140   .     S
C720   H859    1.140   .     S
C720   H860    1.140   .     S
C721   O734    1.412   .     S
C721   C722    1.410   .     A
C722   C723    1.403   .     A
C722   H861    1.140   .     S
C723   C724    1.482   .     S
C724   N725    1.299   .     D
C724   H862    1.140   .     S
N725   C726    1.436   .     S
C726   C727    1.406   .     A
C726   C731    1.397   .     A
C727   C728    1.397   .     A
C727   H863    1.140   .     S
C728   C729    1.410   .     A
C728   H864    1.140   .     S
C729   C730    1.409   .     A
C729   C732    1.496   .     S
C730   C731    1.397   .     A
C730   H865    1.140   .     S
C731   H866    1.140   .     S
C732   C733    1.406   .     A
C733   H867    1.140   .     S
O734   C735    1.428   .     S
C735   H868    1.140   .     S
C735   H869    1.140   .     S
C735   H870    1.140   .     S
C736   C993    1.412   1_455 A
C736   C737    1.410   .     A
C736   O749    1.412   .     S
C737   H871    1.140   .     S
C738   C991    1.412   1_455 A
C738   C137    1.402   1_565 A
C738   C739    1.483   .     S
C739   N740    1.299   .     D
C739   H872    1.140   .     S
N740   C741    1.436   .     S
C741   C742    1.406   .     A
C741   C746    1.397   .     A
C742   C743    1.397   .     A
C742   H873    1.140   .     S
C743   C744    1.409   .     A
C743   H874    1.140   .     S
C744   C745    1.409   .     A
C744   C747    1.496   .     S
C745   C746    1.397   .     A
C745   H875    1.140   .     S
C746   H876    1.140   .     S
C747   C748    1.406   .     A
C747   C763    1.406   .     A
C748   C777    1.406   .     A
C748   H877    1.140   .     S
O749   C750    1.428   .     S
C750   H878    1.140   .     S
C750   H879    1.140   .     S
C750   H880    1.140   .     S
C751   O764    1.412   .     S
C751   C752    1.410   .     A
C752   C1053   1.402   .     A
C752   H881    1.140   .     S
C753   C1052   1.402   1_455 A
C753   C754    1.483   .     S
C754   N755    1.299   .     D
C754   H882    1.140   .     S
N755   C756    1.436   .     S
C756   C757    1.406   .     A
C756   C761    1.397   .     A
C757   C758    1.397   .     A
C757   H883    1.140   .     S
C758   C759    1.410   .     A
C758   H884    1.140   .     S
C759   C760    1.409   .     A
C759   C762    1.496   .     S
C760   C761    1.397   .     A
C760   H885    1.140   .     S
C761   H886    1.140   .     S
C762   C763    1.406   .     A
C762   C778    1.406   .     A
C763   H887    1.140   .     S
O764   C765    1.428   .     S
C765   H888    1.140   .     S
C765   H889    1.140   .     S
C765   H890    1.140   .     S
C766   C123    1.412   1_565 A
C766   O779    1.412   .     S
C766   C767    1.410   .     A
C767   C768    1.402   .     A
C767   H891    1.140   .     S
C768   C121    1.412   1_565 A
C768   C769    1.483   .     S
C769   N770    1.299   .     D
C769   H892    1.140   .     S
N770   C771    1.436   .     S
C771   C772    1.406   .     A
C771   C776    1.397   .     A
C772   C773    1.397   .     A
C772   H893    1.140   .     S
C773   C774    1.410   .     A
C773   H894    1.140   .     S
C774   C775    1.409   .     A
C774   C777    1.495   .     S
C775   C776    1.397   .     A
C775   H895    1.140   .     S
C776   H896    1.140   .     S
C777   C778    1.406   .     A
C778   H897    1.140   .     S
O779   C780    1.428   .     S
C780   H898    1.140   .     S
C780   H899    1.140   .     S
C780   H900    1.140   .     S
H842   C94     1.140   1_565 S
C901   C902    1.410   .     A
C901   C948    1.412   .     A
C901   O914    1.412   .     S
C902   C903    1.402   .     A
C902   H1081   1.140   .     S
C903   C946    1.412   .     A
C903   C904    1.483   .     S
C904   N905    1.299   .     D
C904   H1082   1.140   .     S
N905   C906    1.436   .     S
C906   C907    1.406   .     A
C906   C911    1.397   .     A
C907   C908    1.397   .     A
C907   H1083   1.140   .     S
C908   C909    1.410   .     A
C908   H1084   1.140   .     S
C909   C910    1.409   .     A
C909   C912    1.496   .     S
C910   C911    1.397   .     A
C910   H1085   1.140   .     S
C911   H1086   1.140   .     S
C912   C913    1.406   .     A
C912   C928    1.406   .     A
C913   C942    1.406   .     A
C913   H1087   1.140   .     S
O914   C915    1.428   .     S
C915   H1088   1.140   .     S
C915   H1089   1.140   .     S
C915   H1090   1.140   .     S
C916   C963    1.412   .     A
C916   O929    1.412   .     S
C917   C918    1.402   .     A
C917   H1091   1.140   .     S
C917   C316    1.410   1_565 A
C918   C961    1.412   .     A
C918   C919    1.483   .     S
C919   N920    1.299   .     D
C919   H1092   1.140   .     S
N920   C921    1.436   .     S
C921   C922    1.406   .     A
C921   C926    1.397   .     A
C922   C923    1.397   .     A
C922   H1093   1.140   .     S
C923   C924    1.410   .     A
C923   H1094   1.140   .     S
C924   C925    1.409   .     A
C924   C927    1.495   .     S
C925   C926    1.397   .     A
C925   H1095   1.140   .     S
C926   H1096   1.140   .     S
C927   C928    1.406   .     A
C927   C943    1.406   .     A
C928   H1097   1.140   .     S
O929   C930    1.428   .     S
C930   H1098   1.140   .     S
C930   H1099   1.140   .     S
C930   H1100   1.140   .     S
C931   C978    1.412   .     A
C931   O944    1.412   .     S
C931   C632    1.410   1_655 S
C932   C933    1.403   .     A
C932   H1101   1.140   .     S
C933   C976    1.412   .     A
C933   C934    1.483   .     S
C934   N935    1.299   .     D
C934   H1102   1.140   .     S
N935   C936    1.436   .     S
C936   C937    1.406   .     A
C936   C941    1.397   .     A
C937   C938    1.397   .     A
C937   H1103   1.140   .     S
C938   C939    1.410   .     A
C938   H1104   1.140   .     S
C939   C940    1.409   .     A
C939   C942    1.495   .     S
C940   C941    1.397   .     A
C940   H1105   1.140   .     S
C941   H1106   1.140   .     S
C942   C943    1.406   .     A
C943   H1107   1.140   .     S
O944   C945    1.428   .     S
C945   H1108   1.140   .     S
C945   H1109   1.140   .     S
C945   H1110   1.140   .     S
C946   C947    1.410   .     A
C946   O959    1.412   .     S
C947   C948    1.402   .     A
C947   H1111   1.140   .     S
C948   C949    1.483   .     S
C949   N950    1.299   .     D
C949   H1112   1.140   .     S
N950   C951    1.436   .     S
C951   C952    1.406   .     A
C951   C956    1.397   .     A
C952   C953    1.397   .     A
C952   H1113   1.140   .     S
C953   C954    1.410   .     A
C953   H1114   1.140   .     S
C954   C955    1.409   .     A
C954   C957    1.496   .     S
C955   C956    1.397   .     A
C955   H1115   1.140   .     S
C956   H1116   1.140   .     S
C957   C958    1.406   .     A
C957   C973    1.406   .     A
C958   C987    1.406   .     A
C958   H1117   1.140   .     S
O959   C960    1.428   .     S
C960   H1118   1.140   .     S
C960   H1119   1.140   .     S
C960   H1120   1.140   .     S
C961   O974    1.412   .     S
C961   C362    1.410   1_565 S
C962   C963    1.402   .     A
C962   H1121   1.140   .     S
C963   C964    1.483   .     S
C964   N965    1.299   .     D
C964   H1122   1.140   .     S
N965   C966    1.436   .     S
C966   C967    1.406   .     A
C966   C971    1.397   .     A
C967   C968    1.397   .     A
C967   H1123   1.140   .     S
C968   C969    1.410   .     A
C968   H1124   1.140   .     S
C969   C970    1.409   .     A
C969   C972    1.495   .     S
C970   C971    1.397   .     A
C970   H1125   1.140   .     S
C971   H1126   1.140   .     S
C972   C973    1.406   .     A
C972   C988    1.406   .     A
C973   H1127   1.140   .     S
O974   C975    1.428   .     S
C975   H1128   1.140   .     S
C975   H1129   1.140   .     S
C975   H1130   1.140   .     S
C976   O989    1.412   .     S
C977   C978    1.403   .     A
C977   H1131   1.140   .     S
C977   C676    1.410   1_655 S
C978   C979    1.483   .     S
C979   N980    1.299   .     D
C979   H1132   1.140   .     S
N980   C981    1.436   .     S
C981   C982    1.406   .     A
C981   C986    1.397   .     A
C982   C983    1.397   .     A
C982   H1133   1.140   .     S
C983   C984    1.410   .     A
C983   H1134   1.140   .     S
C984   C985    1.409   .     A
C984   C987    1.495   .     S
C985   C986    1.397   .     A
C985   H1135   1.140   .     S
C986   H1136   1.140   .     S
C987   C988    1.406   .     A
C988   H1137   1.140   .     S
O989   C990    1.428   .     S
C990   H1138   1.140   .     S
C990   H1139   1.140   .     S
C990   H1140   1.140   .     S
C991   C992    1.410   .     A
C991   C738    1.412   1_655 A
C991   O1004   1.412   .     S
C992   C393    1.402   1_565 A
C992   H1141   1.140   .     S
C993   C736    1.412   1_655 A
C993   C994    1.483   .     S
C994   N995    1.299   .     D
N995   C996    1.436   .     S
C996   C997    1.406   .     A
C996   C1001   1.397   .     A
C997   C998    1.397   .     A
C997   H1143   1.140   .     S
C998   C999    1.410   .     A
C998   H1144   1.140   .     S
C999   C1000   1.409   .     A
C999   C1002   1.496   .     S
C1000  C1001   1.397   .     A
C1000  H1145   1.140   .     S
C1001  H1146   1.140   .     S
C1002  C1003   1.406   .     A
C1002  C1018   1.406   .     A
C1003  C1032   1.407   .     A
C1003  H1147   1.140   .     S
O1004  C1005   1.428   .     S
C1005  H1148   1.140   .     S
C1005  H1149   1.140   .     S
C1005  H1150   1.140   .     S
C1006  C1053   1.412   .     A
C1006  O1019   1.412   .     S
C1006  C1007   1.410   .     S
C1007  H1151   1.140   .     S
C1008  C707    1.402   1_655 A
C1008  C1051   1.412   .     A
C1008  C1009   1.483   .     S
C1009  N1010   1.299   .     D
C1009  H1152   1.140   .     S
N1010  C1011   1.436   .     S
C1011  C1012   1.406   .     A
C1011  C1016   1.397   .     A
C1012  C1013   1.397   .     A
C1012  H1153   1.140   .     S
C1013  C1014   1.409   .     A
C1013  H1154   1.140   .     S
C1014  C1015   1.409   .     A
C1014  C1017   1.495   .     S
C1015  C1016   1.397   .     A
C1015  H1155   1.140   .     S
C1016  H1156   1.140   .     S
C1017  C1018   1.406   .     A
C1017  C1033   1.406   .     A
C1018  H1157   1.140   .     S
O1019  C1020   1.428   .     S
C1020  H1158   1.140   .     S
C1020  H1159   1.140   .     S
C1020  H1160   1.140   .     S
C1021  O1034   1.412   .     S
C1021  C1022   1.410   .     A
C1022  C1023   1.403   .     A
C1022  H1161   1.140   .     S
C1023  C1024   1.482   .     S
C1024  N1025   1.299   .     D
C1024  H1162   1.140   .     S
N1025  C1026   1.436   .     S
C1026  C1027   1.406   .     A
C1026  C1031   1.397   .     A
C1027  C1028   1.397   .     A
C1027  H1163   1.140   .     S
C1028  C1029   1.410   .     A
C1028  H1164   1.140   .     S
C1029  C1030   1.409   .     A
C1029  C1032   1.496   .     S
C1030  C1031   1.397   .     A
C1030  H1165   1.140   .     S
C1031  H1166   1.140   .     S
C1032  C1033   1.406   .     A
C1033  H1167   1.140   .     S
O1034  C1035   1.428   .     S
C1035  H1168   1.140   .     S
C1035  H1169   1.140   .     S
C1035  H1170   1.140   .     S
C1036  C1037   1.410   .     A
C1036  O1049   1.412   .     S
C1037  H1171   1.140   .     S
C1038  C437    1.402   1_565 A
C1038  C1039   1.483   .     S
C1039  N1040   1.299   .     D
C1039  H1172   1.140   .     S
N1040  C1041   1.436   .     S
C1041  C1042   1.406   .     A
C1041  C1046   1.397   .     A
C1042  C1043   1.397   .     A
C1042  H1173   1.140   .     S
C1043  C1044   1.409   .     A
C1043  H1174   1.140   .     S
C1044  C1045   1.409   .     A
C1044  C1047   1.496   .     S
C1045  C1046   1.397   .     A
C1045  H1175   1.140   .     S
C1046  H1176   1.140   .     S
C1047  C1048   1.406   .     A
C1047  C1063   1.406   .     A
C1048  C1077   1.406   .     A
C1048  H1177   1.140   .     S
O1049  C1050   1.428   .     S
C1050  H1178   1.140   .     S
C1050  H1179   1.140   .     S
C1050  H1180   1.140   .     S
C1051  O1064   1.412   .     S
C1051  C1052   1.410   .     A
C1052  C753    1.402   1_655 A
C1052  H1181   1.140   .     S
C1053  C1054   1.483   .     S
C1054  N1055   1.299   .     D
C1054  H1182   1.140   .     S
N1055  C1056   1.436   .     S
C1056  C1057   1.406   .     A
C1056  C1061   1.397   .     A
C1057  C1058   1.397   .     A
C1057  H1183   1.140   .     S
C1058  C1059   1.410   .     A
C1058  H1184   1.140   .     S
C1059  C1060   1.409   .     A
C1059  C1062   1.496   .     S
C1060  C1061   1.397   .     A
C1060  H1185   1.140   .     S
C1061  H1186   1.140   .     S
C1062  C1063   1.406   .     A
C1062  C1078   1.406   .     A
C1063  H1187   1.140   .     S
O1064  C1065   1.428   .     S
C1065  H1188   1.140   .     S
C1065  H1189   1.140   .     S
C1065  H1190   1.140   .     S
C1066  C423    1.412   1_565 A
C1066  O1079   1.412   .     S
C1066  C1067   1.410   .     A
C1067  C1068   1.402   .     A
C1067  H1191   1.140   .     S
C1068  C421    1.412   1_565 A
C1068  C1069   1.483   .     S
C1069  N1070   1.299   .     D
C1069  H1192   1.140   .     S
N1070  C1071   1.436   .     S
C1071  C1072   1.406   .     A
C1071  C1076   1.397   .     A
C1072  C1073   1.397   .     A
C1072  H1193   1.140   .     S
C1073  C1074   1.410   .     A
C1073  H1194   1.140   .     S
C1074  C1075   1.409   .     A
C1074  C1077   1.495   .     S
C1075  C1076   1.397   .     A
C1075  H1195   1.140   .     S
C1076  H1196   1.140   .     S
C1077  C1078   1.406   .     A
C1078  H1197   1.140   .     S
O1079  C1080   1.428   .     S
C1080  H1198   1.140   .     S
C1080  H1199   1.140   .     S
C1080  H1200   1.140   .     S
H1142  C394    1.140   1_565 S