data_functionalizedCrystal
_audit_creation_method	'EQeq! by Chris Wilmer'
_symmetry_space_group_name_H-M	'P1'
_symmetry_Int_Tables_number	1
_symmetry_cell_setting	triclinic
loop_
_symmetry_equiv_pos_as_xyz
  x,y,z
_cell_length_a	75.370200
_cell_length_b	75.370200
_cell_length_c	11.367900
_cell_angle_alpha	90.000000
_cell_angle_beta	90.000000
_cell_angle_gamma	120.000000
loop_
_atom_site_label
_atom_site_type_symbol
_atom_site_fract_x
_atom_site_fract_y
_atom_site_fract_z
_atom_site_charge
cgC 	C 	0.241970	0.228510	0.082400	0.117000
cgC 	C 	0.228870	0.236830	0.079200	-0.081000
cgC 	C 	0.236650	0.258060	0.077730	-0.016000
cgC 	C 	0.221780	0.265500	0.075230	0.040000
cgN 	N 	0.227600	0.284550	0.053440	-0.112000
cgC 	C 	0.214680	0.293510	0.049910	0.087000
cgC 	C 	0.195130	0.284160	0.101770	-0.073000
cgC 	C 	0.183480	0.293880	0.099560	-0.019000
cgC 	C 	0.190930	0.313050	0.044320	-0.013000
cgC 	C 	0.210520	0.322250	-0.007620	-0.016000
cgC 	C 	0.222300	0.312690	-0.003190	-0.068000
cgC 	C 	0.178470	0.323470	0.042340	0.042000
cgC 	C 	0.156940	0.311970	0.042120	-0.076000
cgO 	O 	0.234450	0.207230	0.090640	-0.183000
cgH 	H 	0.212440	0.226820	0.077570	0.054000
cgH 	H 	0.189030	0.269770	0.148170	0.050000
cgH 	H 	0.168930	0.286590	0.145070	0.031000
cgH 	H 	0.216700	0.336650	-0.054180	0.036000
cgH 	H 	0.237340	0.320090	-0.043460	0.059000
cgH 	H 	0.149430	0.295460	0.042410	0.053000
cgH 	H 	0.205720	0.254430	0.087250	0.023000
cgC 	C 	0.214370	0.194610	0.137640	-0.029000
cgH 	H 	0.212220	0.179240	0.157200	0.046000
cgH 	H 	0.202410	0.192660	0.073900	0.039000
cgH 	H 	0.212490	0.201290	0.220030	0.040000
cgC 	C 	0.271490	0.013450	0.082400	0.117000
cgC 	C 	0.263170	0.492040	0.079200	-0.081000
cgC 	C 	0.241940	0.478590	0.077730	-0.016000
cgC 	C 	0.234500	0.456280	0.075230	0.039000
cgN 	N 	0.215450	0.443050	0.053440	-0.113000
cgC 	C 	0.206490	0.421170	0.049910	0.087000
cgC 	C 	0.215840	0.410970	0.101770	-0.075000
cgC 	C 	0.206120	0.389600	0.099560	-0.015000
cgC 	C 	0.186950	0.377870	0.044320	-0.016000
cgC 	C 	0.177750	0.388270	-0.007620	-0.016000
cgC 	C 	0.187310	0.409610	-0.003190	-0.070000
cgC 	C 	0.176530	0.354990	0.042340	0.041000
cgC 	C 	0.188030	0.344970	0.042120	-0.078000
cgO 	O 	0.292770	0.027220	0.090640	-0.184000
cgH 	H 	0.273180	0.485610	0.077570	0.053000
cgH 	H 	0.230230	0.419260	0.148170	0.049000
cgH 	H 	0.213410	0.382340	0.145070	0.027000
cgH 	H 	0.163350	0.380050	-0.054180	0.035000
cgH 	H 	0.179910	0.417240	-0.043460	0.059000
cgH 	H 	0.204540	0.353970	0.042410	0.052000
cgH 	H 	0.245570	0.451290	0.087250	0.022000
cgC 	C 	0.305390	0.019760	0.137640	-0.030000
cgH 	H 	0.320760	0.032990	0.157200	0.045000
cgH 	H 	0.307340	0.009750	0.073900	0.038000
cgH 	H 	0.298710	0.011200	0.220030	0.040000
cgC 	C 	0.486550	0.258030	0.082400	0.116000
cgC 	C 	0.007960	0.271130	0.079200	-0.082000
cgC 	C 	0.021410	0.263350	0.077730	-0.017000
cgC 	C 	0.043720	0.278220	0.075230	0.039000
cgN 	N 	0.056950	0.272400	0.053440	-0.113000
cgC 	C 	0.078830	0.285320	0.049910	0.087000
cgC 	C 	0.089030	0.304870	0.101770	-0.074000
cgC 	C 	0.110400	0.316520	0.099560	-0.018000
cgC 	C 	0.122130	0.309070	0.044320	-0.016000
cgC 	C 	0.111730	0.289480	-0.007620	-0.017000
cgC 	C 	0.090390	0.277700	-0.003190	-0.070000
cgC 	C 	0.145010	0.321530	0.042340	0.040000
cgC 	C 	0.155030	0.343060	0.042120	-0.078000
cgO 	O 	0.472780	0.265550	0.090640	-0.184000
cgH 	H 	0.014390	0.287560	0.077570	0.053000
cgH 	H 	0.080740	0.310970	0.148170	0.049000
cgH 	H 	0.117660	0.331070	0.145070	0.028000
cgH 	H 	0.119950	0.283300	-0.054180	0.035000
cgH 	H 	0.082760	0.262660	-0.043460	0.058000
cgH 	H 	0.146030	0.350570	0.042410	0.052000
cgH 	H 	0.048710	0.294280	0.087250	0.022000
cgC 	C 	0.480240	0.285630	0.137640	-0.030000
cgH 	H 	0.467020	0.287780	0.157200	0.045000
cgH 	H 	0.490250	0.297590	0.073900	0.038000
cgH 	H 	0.488800	0.287510	0.220030	0.039000
cgC 	C 	0.258030	0.271490	0.082400	0.116000
cgC 	C 	0.271130	0.263170	0.079200	-0.081000
cgC 	C 	0.263350	0.241940	0.077730	-0.018000
cgC 	C 	0.278220	0.234500	0.075230	0.039000
cgN 	N 	0.272400	0.215450	0.053440	-0.113000
cgC 	C 	0.285320	0.206490	0.049910	0.087000
cgC 	C 	0.304870	0.215840	0.101770	-0.073000
cgC 	C 	0.316520	0.206120	0.099560	-0.015000
cgC 	C 	0.309070	0.186950	0.044320	-0.016000
cgC 	C 	0.289480	0.177750	-0.007620	-0.014000
cgC 	C 	0.277700	0.187310	-0.003190	-0.072000
cgC 	C 	0.321530	0.176530	0.042340	0.041000
cgC 	C 	0.343060	0.188030	0.042120	-0.078000
cgO 	O 	0.265550	0.292770	0.090640	-0.184000
cgH 	H 	0.287560	0.273180	0.077570	0.052000
cgH 	H 	0.310970	0.230230	0.148170	0.051000
cgH 	H 	0.331070	0.213410	0.145070	0.034000
cgH 	H 	0.283300	0.163350	-0.054180	0.027000
cgH 	H 	0.262660	0.179910	-0.043460	0.057000
cgH 	H 	0.350570	0.204540	0.042410	0.053000
cgH 	H 	0.294280	0.245570	0.087250	0.022000
cgC 	C 	0.285630	0.305390	0.137640	-0.030000
cgH 	H 	0.287780	0.320760	0.157200	0.044000
cgH 	H 	0.297590	0.307340	0.073900	0.038000
cgH 	H 	0.287510	0.298710	0.220030	0.039000
cgC 	C 	0.228510	0.486540	0.082400	0.116000
cgC 	C 	0.236830	0.007960	0.079200	-0.081000
cgC 	C 	0.258060	0.021410	0.077730	-0.017000
cgC 	C 	0.265500	0.043720	0.075230	0.039000
cgN 	N 	0.284550	0.056950	0.053440	-0.113000
cgC 	C 	0.293510	0.078830	0.049910	0.085000
cgC 	C 	0.284160	0.089030	0.101770	-0.071000
cgC 	C 	0.293880	0.110400	0.099560	-0.018000
cgC 	C 	0.313050	0.122130	0.044320	-0.012000
cgC 	C 	0.322250	0.111730	-0.007620	-0.025000
cgC 	C 	0.312690	0.090390	-0.003190	-0.068000
cgC 	C 	0.323470	0.145010	0.042340	0.041000
cgC 	C 	0.311970	0.155030	0.042120	-0.077000
cgO 	O 	0.207230	0.472780	0.090640	-0.184000
cgH 	H 	0.226820	0.014390	0.077570	0.053000
cgH 	H 	0.269770	0.080740	0.148170	0.051000
cgH 	H 	0.286590	0.117660	0.145070	0.035000
cgH 	H 	0.336650	0.119950	-0.054180	0.035000
cgH 	H 	0.320090	0.082760	-0.043460	0.055000
cgH 	H 	0.295460	0.146030	0.042410	0.052000
cgH 	H 	0.254430	0.048710	0.087250	0.022000
cgC 	C 	0.194610	0.480240	0.137640	-0.030000
cgH 	H 	0.179240	0.467020	0.157200	0.044000
cgH 	H 	0.192660	0.490240	0.073900	0.038000
cgH 	H 	0.201290	0.488800	0.220030	0.039000
cgC 	C 	0.013460	0.241970	0.082400	0.116000
cgC 	C 	0.492040	0.228870	0.079200	-0.081000
cgC 	C 	0.478590	0.236650	0.077730	-0.018000
cgC 	C 	0.456280	0.221780	0.075230	0.039000
cgN 	N 	0.443050	0.227600	0.053440	-0.113000
cgC 	C 	0.421170	0.214680	0.049910	0.086000
cgC 	C 	0.410970	0.195130	0.101770	-0.072000
cgC 	C 	0.389600	0.183480	0.099560	-0.017000
cgC 	C 	0.377870	0.190930	0.044320	-0.015000
cgC 	C 	0.388270	0.210520	-0.007620	-0.021000
cgC 	C 	0.409610	0.222300	-0.003190	-0.068000
cgC 	C 	0.354990	0.178470	0.042340	0.039000
cgC 	C 	0.344970	0.156940	0.042120	-0.077000
cgO 	O 	0.027220	0.234450	0.090640	-0.184000
cgH 	H 	0.485610	0.212440	0.077570	0.053000
cgH 	H 	0.419260	0.189030	0.148170	0.050000
cgH 	H 	0.382340	0.168930	0.145070	0.035000
cgH 	H 	0.380050	0.216700	-0.054180	0.031000
cgH 	H 	0.417240	0.237340	-0.043460	0.056000
cgH 	H 	0.353970	0.149430	0.042410	0.052000
cgH 	H 	0.451290	0.205720	0.087250	0.021000
cgC 	C 	0.019760	0.214370	0.137640	-0.030000
cgH 	H 	0.032980	0.212220	0.157200	0.044000
cgH 	H 	0.009750	0.202410	0.073900	0.038000
cgH 	H 	0.011200	0.212490	0.220030	0.039000
cgC 	C 	0.078230	0.394750	0.374510	0.115000
cgC 	C 	0.065140	0.403070	0.371310	-0.082000
cgC 	C 	0.072920	0.424300	0.369840	-0.018000
cgC 	C 	0.058050	0.431730	0.367340	0.039000
cgN 	N 	0.063870	0.450790	0.345550	-0.113000
cgC 	C 	0.050950	0.459750	0.342020	0.086000
cgC 	C 	0.031390	0.450390	0.393880	-0.073000
cgC 	C 	0.019740	0.460110	0.391680	-0.017000
cgC 	C 	0.027190	0.479290	0.336440	-0.015000
cgC 	C 	0.046780	0.488480	0.284490	-0.018000
cgC 	C 	0.058570	0.478920	0.288920	-0.069000
cgC 	C 	0.014730	0.489710	0.334450	0.039000
cgC 	C 	0.493210	0.478210	0.334240	-0.078000
cgO 	O 	0.070710	0.373460	0.382750	-0.185000
cgH 	H 	0.048700	0.393060	0.369690	0.053000
cgH 	H 	0.025290	0.436000	0.440280	0.049000
cgH 	H 	0.005190	0.452820	0.437180	0.033000
cgH 	H 	0.052960	0.002880	0.237930	0.035000
cgH 	H 	0.073600	0.486330	0.248650	0.058000
cgH 	H 	0.485690	0.461690	0.334530	0.050000
cgH 	H 	0.041990	0.420670	0.379360	0.021000
cgC 	C 	0.050640	0.360850	0.429750	-0.030000
cgH 	H 	0.048490	0.345470	0.449310	0.044000
cgH 	H 	0.038680	0.358890	0.366010	0.037000
cgH 	H 	0.048750	0.367530	0.512140	0.039000
cgC 	C 	0.107760	0.179690	0.374510	0.116000
cgC 	C 	0.099440	0.158280	0.371310	-0.082000
cgC 	C 	0.078210	0.144830	0.369840	-0.018000
cgC 	C 	0.070770	0.122520	0.367340	0.039000
cgN 	N 	0.051720	0.109290	0.345550	-0.113000
cgC 	C 	0.042760	0.087410	0.342020	0.086000
cgC 	C 	0.052110	0.077210	0.393880	-0.073000
cgC 	C 	0.042390	0.055840	0.391680	-0.018000
cgC 	C 	0.023220	0.044110	0.336440	-0.015000
cgC 	C 	0.014020	0.054510	0.284490	-0.018000
cgC 	C 	0.023580	0.075850	0.288920	-0.069000
cgC 	C 	0.012800	0.021230	0.334450	0.039000
cgC 	C 	0.024300	0.011210	0.334240	-0.078000
cgO 	O 	0.129040	0.193460	0.382750	-0.185000
cgH 	H 	0.109450	0.151850	0.369690	0.053000
cgH 	H 	0.066500	0.085500	0.440280	0.050000
cgH 	H 	0.049680	0.048580	0.437180	0.033000
cgH 	H 	0.499620	0.046290	0.237930	0.034000
cgH 	H 	0.016180	0.083480	0.248650	0.058000
cgH 	H 	0.040810	0.020210	0.334530	0.051000
cgH 	H 	0.081840	0.117530	0.379360	0.021000
cgC 	C 	0.141660	0.186000	0.429750	-0.030000
cgH 	H 	0.157030	0.199220	0.449310	0.044000
cgH 	H 	0.143610	0.175990	0.366010	0.037000
cgH 	H 	0.134980	0.177430	0.512140	0.039000
cgC 	C 	0.322810	0.424270	0.374510	0.116000
cgC 	C 	0.344230	0.437370	0.371310	-0.082000
cgC 	C 	0.357680	0.429590	0.369840	-0.017000
cgC 	C 	0.379980	0.444460	0.367340	0.039000
cgN 	N 	0.393220	0.438640	0.345550	-0.113000
cgC 	C 	0.415100	0.451560	0.342020	0.086000
cgC 	C 	0.425300	0.471110	0.393880	-0.073000
cgC 	C 	0.446670	0.482760	0.391680	-0.018000
cgC 	C 	0.458390	0.475310	0.336440	-0.014000
cgC 	C 	0.448000	0.455720	0.284490	-0.018000
cgC 	C 	0.426650	0.443940	0.288920	-0.069000
cgC 	C 	0.481270	0.487770	0.334450	0.039000
cgC 	C 	0.491300	0.009300	0.334240	-0.078000
cgO 	O 	0.309050	0.431790	0.382750	-0.185000
cgH 	H 	0.350650	0.453800	0.369690	0.053000
cgH 	H 	0.417010	0.477210	0.440280	0.049000
cgH 	H 	0.453930	0.497310	0.437180	0.034000
cgH 	H 	0.456220	0.449540	0.237930	0.035000
cgH 	H 	0.419020	0.428900	0.248650	0.058000
cgH 	H 	0.482300	0.016810	0.334530	0.051000
cgH 	H 	0.384980	0.460520	0.379360	0.022000
cgC 	C 	0.316510	0.451870	0.429750	-0.030000
cgH 	H 	0.303280	0.454020	0.449310	0.044000
cgH 	H 	0.326510	0.463830	0.366010	0.038000
cgH 	H 	0.325070	0.453750	0.512140	0.040000
cgC 	C 	0.094300	0.437730	0.374510	0.115000
cgC 	C 	0.107400	0.429410	0.371310	-0.082000
cgC 	C 	0.099620	0.408180	0.369840	-0.018000
cgC 	C 	0.114490	0.400740	0.367340	0.039000
cgN 	N 	0.108670	0.381690	0.345550	-0.113000
cgC 	C 	0.121590	0.372730	0.342020	0.086000
cgC 	C 	0.141140	0.382080	0.393880	-0.073000
cgC 	C 	0.152790	0.372360	0.391680	-0.016000
cgC 	C 	0.145340	0.353190	0.336440	-0.015000
cgC 	C 	0.125750	0.343990	0.284490	-0.019000
cgC 	C 	0.113970	0.353550	0.288920	-0.071000
cgC 	C 	0.157800	0.342770	0.334450	0.041000
cgC 	C 	0.179330	0.354270	0.334240	-0.078000
cgO 	O 	0.101820	0.459010	0.382750	-0.184000
cgH 	H 	0.123830	0.439420	0.369690	0.052000
cgH 	H 	0.147240	0.396470	0.440280	0.050000
cgH 	H 	0.167340	0.379650	0.437180	0.034000
cgH 	H 	0.119570	0.329590	0.237930	0.029000
cgH 	H 	0.098930	0.346150	0.248650	0.055000
cgH 	H 	0.186840	0.370780	0.334530	0.052000
cgH 	H 	0.130550	0.411810	0.379360	0.021000
cgC 	C 	0.121900	0.471630	0.429750	-0.030000
cgH 	H 	0.124050	0.487000	0.449310	0.045000
cgH 	H 	0.133860	0.473580	0.366010	0.037000
cgH 	H 	0.123780	0.464950	0.512140	0.039000
cgC 	C 	0.064780	0.152780	0.374510	0.115000
cgC 	C 	0.073100	0.174200	0.371310	-0.082000
cgC 	C 	0.094330	0.187650	0.369840	-0.018000
cgC 	C 	0.101760	0.209950	0.367340	0.039000
cgN 	N 	0.120820	0.223190	0.345550	-0.113000
cgC 	C 	0.129780	0.245070	0.342020	0.086000
cgC 	C 	0.120420	0.255270	0.393880	-0.073000
cgC 	C 	0.130140	0.276640	0.391680	-0.017000
cgC 	C 	0.149320	0.288360	0.336440	-0.015000
cgC 	C 	0.158510	0.277970	0.284490	-0.021000
cgC 	C 	0.148950	0.256620	0.288920	-0.069000
cgC 	C 	0.159740	0.311240	0.334450	0.040000
cgC 	C 	0.148240	0.321270	0.334240	-0.077000
cgO 	O 	0.043490	0.139020	0.382750	-0.184000
cgH 	H 	0.063090	0.180620	0.369690	0.052000
cgH 	H 	0.106030	0.246980	0.440280	0.050000
cgH 	H 	0.122850	0.283900	0.437180	0.034000
cgH 	H 	0.172910	0.286190	0.237930	0.030000
cgH 	H 	0.156360	0.248990	0.248650	0.055000
cgH 	H 	0.131720	0.312270	0.334530	0.052000
cgH 	H 	0.090700	0.214950	0.379360	0.021000
cgC 	C 	0.030880	0.146480	0.429750	-0.029000
cgH 	H 	0.015500	0.133250	0.449310	0.044000
cgH 	H 	0.028920	0.156480	0.366010	0.037000
cgH 	H 	0.037560	0.155040	0.512140	0.039000
cgC 	C 	0.349720	0.408200	0.374510	0.115000
cgC 	C 	0.328310	0.395110	0.371310	-0.081000
cgC 	C 	0.314860	0.402890	0.369840	-0.018000
cgC 	C 	0.292550	0.388020	0.367340	0.039000
cgN 	N 	0.279320	0.393840	0.345550	-0.113000
cgC 	C 	0.257440	0.380920	0.342020	0.087000
cgC 	C 	0.247240	0.361360	0.393880	-0.073000
cgC 	C 	0.225870	0.349710	0.391680	-0.016000
cgC 	C 	0.214140	0.357160	0.336440	-0.017000
cgC 	C 	0.224540	0.376750	0.284490	-0.016000
cgC 	C 	0.245880	0.388540	0.288920	-0.071000
cgC 	C 	0.191260	0.344700	0.334450	0.041000
cgC 	C 	0.181240	0.323180	0.334240	-0.078000
cgO 	O 	0.363490	0.400680	0.382750	-0.184000
cgH 	H 	0.321880	0.378670	0.369690	0.052000
cgH 	H 	0.255530	0.355260	0.440280	0.050000
cgH 	H 	0.218610	0.335160	0.437180	0.034000
cgH 	H 	0.216320	0.382930	0.237930	0.026000
cgH 	H 	0.253510	0.403570	0.248650	0.056000
cgH 	H 	0.190240	0.315660	0.334530	0.052000
cgH 	H 	0.287560	0.371960	0.379360	0.021000
cgC 	C 	0.356030	0.380610	0.429750	-0.030000
cgH 	H 	0.369250	0.378460	0.449310	0.045000
cgH 	H 	0.346020	0.368650	0.366010	0.037000
cgH 	H 	0.347460	0.378720	0.512140	0.039000
cgC 	C 	0.403160	0.053570	0.800810	0.115000
cgC 	C 	0.390070	0.061890	0.797620	-0.082000
cgC 	C 	0.397850	0.083120	0.796150	-0.018000
cgC 	C 	0.382980	0.090550	0.793640	0.039000
cgN 	N 	0.388800	0.109610	0.771850	-0.113000
cgC 	C 	0.375880	0.118570	0.768320	0.085000
cgC 	C 	0.356320	0.109210	0.820190	-0.071000
cgC 	C 	0.344670	0.118930	0.817980	-0.026000
cgC 	C 	0.352120	0.138110	0.762740	-0.014000
cgC 	C 	0.371710	0.147300	0.710790	-0.019000
cgC 	C 	0.383500	0.137740	0.715220	-0.069000
cgC 	C 	0.339660	0.148530	0.760750	0.039000
cgC 	C 	0.318140	0.137030	0.760540	-0.078000
cgO 	O 	0.395640	0.032280	0.809050	-0.185000
cgH 	H 	0.373630	0.051880	0.795990	0.053000
cgH 	H 	0.350220	0.094820	0.866590	0.048000
cgH 	H 	0.330120	0.111640	0.863490	0.031000
cgH 	H 	0.377890	0.161700	0.664230	0.035000
cgH 	H 	0.398530	0.145150	0.674960	0.058000
cgH 	H 	0.310620	0.120510	0.760830	0.052000
cgH 	H 	0.366920	0.079490	0.805670	0.022000
cgC 	C 	0.375570	0.019670	0.856060	-0.029000
cgH 	H 	0.373420	0.004290	0.875620	0.044000
cgH 	H 	0.363610	0.017710	0.792320	0.038000
cgH 	H 	0.373680	0.026350	0.938450	0.039000
cgC 	C 	0.432690	0.338510	0.800810	0.116000
cgC 	C 	0.424370	0.317100	0.797620	-0.082000
cgC 	C 	0.403140	0.303650	0.796150	-0.018000
cgC 	C 	0.395700	0.281340	0.793640	0.039000
cgN 	N 	0.376650	0.268110	0.771850	-0.113000
cgC 	C 	0.367690	0.246230	0.768320	0.086000
cgC 	C 	0.377040	0.236030	0.820190	-0.075000
cgC 	C 	0.367320	0.214660	0.817980	-0.021000
cgC 	C 	0.348150	0.202930	0.762740	-0.014000
cgC 	C 	0.338950	0.213330	0.710790	-0.018000
cgC 	C 	0.348510	0.234670	0.715220	-0.069000
cgC 	C 	0.337730	0.180050	0.760750	0.041000
cgC 	C 	0.349230	0.170030	0.760540	-0.077000
cgO 	O 	0.453970	0.352280	0.809050	-0.185000
cgH 	H 	0.434380	0.310670	0.795990	0.053000
cgH 	H 	0.391430	0.244320	0.866590	0.047000
cgH 	H 	0.374610	0.207400	0.863490	0.029000
cgH 	H 	0.324550	0.205110	0.664230	0.035000
cgH 	H 	0.341110	0.242300	0.674960	0.058000
cgH 	H 	0.365740	0.179030	0.760830	0.051000
cgH 	H 	0.406770	0.276350	0.805670	0.021000
cgC 	C 	0.466590	0.344820	0.856060	-0.030000
cgH 	H 	0.481960	0.358040	0.875620	0.044000
cgH 	H 	0.468540	0.334810	0.792320	0.038000
cgH 	H 	0.459910	0.336250	0.938450	0.039000
cgC 	C 	0.147740	0.083090	0.800810	0.115000
cgC 	C 	0.169160	0.096190	0.797620	-0.082000
cgC 	C 	0.182610	0.088410	0.796150	-0.018000
cgC 	C 	0.204910	0.103280	0.793640	0.039000
cgN 	N 	0.218150	0.097460	0.771850	-0.113000
cgC 	C 	0.240030	0.110380	0.768320	0.087000
cgC 	C 	0.250230	0.129930	0.820190	-0.076000
cgC 	C 	0.271600	0.141580	0.817980	-0.013000
cgC 	C 	0.283320	0.134130	0.762740	-0.018000
cgC 	C 	0.272930	0.114540	0.710790	-0.016000
cgC 	C 	0.251580	0.102760	0.715220	-0.071000
cgC 	C 	0.306200	0.146590	0.760750	0.040000
cgC 	C 	0.316230	0.168120	0.760540	-0.078000
cgO 	O 	0.133980	0.090610	0.809050	-0.185000
cgH 	H 	0.175580	0.112620	0.795990	0.053000
cgH 	H 	0.241940	0.136030	0.866590	0.049000
cgH 	H 	0.278860	0.156130	0.863490	0.023000
cgH 	H 	0.281150	0.108360	0.664230	0.034000
cgH 	H 	0.243950	0.087720	0.674960	0.058000
cgH 	H 	0.307230	0.175630	0.760830	0.051000
cgH 	H 	0.209910	0.119340	0.805670	0.021000
cgC 	C 	0.141440	0.110690	0.856060	-0.030000
cgH 	H 	0.128210	0.112840	0.875620	0.044000
cgH 	H 	0.151440	0.122650	0.792320	0.038000
cgH 	H 	0.150000	0.112570	0.938450	0.039000
cgC 	C 	0.419230	0.096550	0.800810	0.115000
cgC 	C 	0.432330	0.088230	0.797620	-0.082000
cgC 	C 	0.424550	0.067000	0.796150	-0.018000
cgC 	C 	0.439420	0.059560	0.793640	0.039000
cgN 	N 	0.433600	0.040510	0.771850	-0.113000
cgC 	C 	0.446520	0.031550	0.768320	0.086000
cgC 	C 	0.466070	0.040900	0.820190	-0.073000
cgC 	C 	0.477720	0.031180	0.817980	-0.018000
cgC 	C 	0.470270	0.012010	0.762740	-0.015000
cgC 	C 	0.450680	0.002810	0.710790	-0.019000
cgC 	C 	0.438900	0.012370	0.715220	-0.070000
cgC 	C 	0.482730	0.001590	0.760750	0.039000
cgC 	C 	0.004260	0.013090	0.760540	-0.078000
cgO 	O 	0.426750	0.117830	0.809050	-0.185000
cgH 	H 	0.448760	0.098240	0.795990	0.052000
cgH 	H 	0.472170	0.055290	0.866590	0.049000
cgH 	H 	0.492270	0.038470	0.863490	0.033000
cgH 	H 	0.444500	0.488410	0.664230	0.034000
cgH 	H 	0.423860	0.004970	0.674960	0.056000
cgH 	H 	0.011770	0.029600	0.760830	0.050000
cgH 	H 	0.455480	0.070630	0.805670	0.021000
cgC 	C 	0.446830	0.130450	0.856060	-0.029000
cgH 	H 	0.448980	0.145820	0.875620	0.043000
cgH 	H 	0.458790	0.132400	0.792320	0.038000
cgH 	H 	0.448710	0.123770	0.938450	0.038000
cgC 	C 	0.389710	0.311600	0.800810	0.115000
cgC 	C 	0.398030	0.333020	0.797620	-0.082000
cgC 	C 	0.419260	0.346470	0.796150	-0.018000
cgC 	C 	0.426690	0.368770	0.793640	0.039000
cgN 	N 	0.445750	0.382010	0.771850	-0.113000
cgC 	C 	0.454710	0.403890	0.768320	0.086000
cgC 	C 	0.445350	0.414090	0.820190	-0.073000
cgC 	C 	0.455070	0.435460	0.817980	-0.017000
cgC 	C 	0.474250	0.447180	0.762740	-0.015000
cgC 	C 	0.483440	0.436790	0.710790	-0.018000
cgC 	C 	0.473880	0.415440	0.715220	-0.070000
cgC 	C 	0.484670	0.470060	0.760750	0.039000
cgC 	C 	0.473170	0.480090	0.760540	-0.078000
cgO 	O 	0.368420	0.297840	0.809050	-0.185000
cgH 	H 	0.388020	0.339440	0.795990	0.052000
cgH 	H 	0.430960	0.405800	0.866590	0.050000
cgH 	H 	0.447780	0.442720	0.863490	0.033000
cgH 	H 	0.497840	0.445010	0.664230	0.032000
cgH 	H 	0.481290	0.407810	0.674960	0.056000
cgH 	H 	0.456650	0.471090	0.760830	0.050000
cgH 	H 	0.415630	0.373770	0.805670	0.021000
cgC 	C 	0.355810	0.305300	0.856060	-0.029000
cgH 	H 	0.340430	0.292070	0.875620	0.043000
cgH 	H 	0.353850	0.315300	0.792320	0.037000
cgH 	H 	0.362490	0.313860	0.938450	0.038000
cgC 	C 	0.174650	0.067020	0.800810	0.115000
cgC 	C 	0.153240	0.053930	0.797620	-0.082000
cgC 	C 	0.139790	0.061710	0.796150	-0.018000
cgC 	C 	0.117480	0.046840	0.793640	0.039000
cgN 	N 	0.104250	0.052660	0.771850	-0.113000
cgC 	C 	0.082370	0.039740	0.768320	0.086000
cgC 	C 	0.072170	0.020180	0.820190	-0.073000
cgC 	C 	0.050800	0.008530	0.817980	-0.017000
cgC 	C 	0.039070	0.015980	0.762740	-0.014000
cgC 	C 	0.049470	0.035570	0.710790	-0.019000
cgC 	C 	0.070810	0.047360	0.715220	-0.070000
cgC 	C 	0.016190	0.003520	0.760750	0.039000
cgC 	C 	0.006170	0.482000	0.760540	-0.078000
cgO 	O 	0.188420	0.059500	0.809050	-0.185000
cgH 	H 	0.146810	0.037490	0.795990	0.052000
cgH 	H 	0.080460	0.014080	0.866590	0.050000
cgH 	H 	0.043540	0.493980	0.863490	0.034000
cgH 	H 	0.041250	0.041750	0.664230	0.034000
cgH 	H 	0.078440	0.062390	0.674960	0.056000
cgH 	H 	0.015170	0.474480	0.760830	0.050000
cgH 	H 	0.112490	0.030780	0.805670	0.021000
cgC 	C 	0.180960	0.039430	0.856060	-0.029000
cgH 	H 	0.194180	0.037280	0.875620	0.043000
cgH 	H 	0.170950	0.027470	0.792320	0.038000
cgH 	H 	0.172390	0.037540	0.938450	0.038000
cgC 	C 	0.741970	0.228510	0.082400	0.116000
cgC 	C 	0.728870	0.236830	0.079200	-0.082000
cgC 	C 	0.736650	0.258060	0.077730	-0.017000
cgC 	C 	0.721780	0.265500	0.075230	0.039000
cgN 	N 	0.727600	0.284550	0.053440	-0.113000
cgC 	C 	0.714680	0.293510	0.049910	0.086000
cgC 	C 	0.695130	0.284160	0.101770	-0.074000
cgC 	C 	0.683480	0.293880	0.099560	-0.020000
cgC 	C 	0.690930	0.313050	0.044320	-0.014000
cgC 	C 	0.710520	0.322250	-0.007620	-0.017000
cgC 	C 	0.722300	0.312690	-0.003190	-0.069000
cgC 	C 	0.678470	0.323470	0.042340	0.041000
cgC 	C 	0.656940	0.311970	0.042120	-0.077000
cgO 	O 	0.734450	0.207230	0.090640	-0.184000
cgH 	H 	0.712440	0.226820	0.077570	0.053000
cgH 	H 	0.689030	0.269770	0.148170	0.049000
cgH 	H 	0.668930	0.286590	0.145070	0.030000
cgH 	H 	0.716700	0.336650	-0.054180	0.035000
cgH 	H 	0.737340	0.320090	-0.043460	0.058000
cgH 	H 	0.649430	0.295460	0.042410	0.052000
cgH 	H 	0.705720	0.254430	0.087250	0.022000
cgC 	C 	0.714370	0.194610	0.137640	-0.030000
cgH 	H 	0.712220	0.179240	0.157200	0.045000
cgH 	H 	0.702410	0.192660	0.073900	0.038000
cgH 	H 	0.712490	0.201290	0.220030	0.039000
cgC 	C 	0.771490	0.013450	0.082400	0.116000
cgC 	C 	0.763170	0.492040	0.079200	-0.082000
cgC 	C 	0.741940	0.478590	0.077730	-0.017000
cgC 	C 	0.734500	0.456280	0.075230	0.039000
cgN 	N 	0.715450	0.443050	0.053440	-0.113000
cgC 	C 	0.706490	0.421170	0.049910	0.087000
cgC 	C 	0.715840	0.410970	0.101770	-0.075000
cgC 	C 	0.706120	0.389600	0.099560	-0.015000
cgC 	C 	0.686950	0.377870	0.044320	-0.016000
cgC 	C 	0.677750	0.388270	-0.007620	-0.016000
cgC 	C 	0.687310	0.409610	-0.003190	-0.070000
cgC 	C 	0.676530	0.354990	0.042340	0.041000
cgC 	C 	0.688030	0.344970	0.042120	-0.078000
cgO 	O 	0.792770	0.027220	0.090640	-0.184000
cgH 	H 	0.773180	0.485610	0.077570	0.053000
cgH 	H 	0.730230	0.419260	0.148170	0.049000
cgH 	H 	0.713410	0.382340	0.145070	0.027000
cgH 	H 	0.663350	0.380050	-0.054180	0.035000
cgH 	H 	0.679910	0.417240	-0.043460	0.059000
cgH 	H 	0.704540	0.353970	0.042410	0.052000
cgH 	H 	0.745570	0.451290	0.087250	0.022000
cgC 	C 	0.805390	0.019760	0.137640	-0.030000
cgH 	H 	0.820760	0.032990	0.157200	0.045000
cgH 	H 	0.807340	0.009750	0.073900	0.038000
cgH 	H 	0.798710	0.011200	0.220030	0.040000
cgC 	C 	0.986540	0.258030	0.082400	0.116000
cgC 	C 	0.507960	0.271130	0.079200	-0.082000
cgC 	C 	0.521410	0.263350	0.077730	-0.017000
cgC 	C 	0.543720	0.278220	0.075230	0.039000
cgN 	N 	0.556950	0.272400	0.053440	-0.113000
cgC 	C 	0.578830	0.285320	0.049910	0.087000
cgC 	C 	0.589030	0.304870	0.101770	-0.074000
cgC 	C 	0.610400	0.316520	0.099560	-0.018000
cgC 	C 	0.622130	0.309070	0.044320	-0.016000
cgC 	C 	0.611730	0.289480	-0.007620	-0.017000
cgC 	C 	0.590390	0.277700	-0.003190	-0.070000
cgC 	C 	0.645010	0.321530	0.042340	0.040000
cgC 	C 	0.655030	0.343060	0.042120	-0.078000
cgO 	O 	0.972780	0.265550	0.090640	-0.184000
cgH 	H 	0.514390	0.287560	0.077570	0.053000
cgH 	H 	0.580740	0.310970	0.148170	0.049000
cgH 	H 	0.617660	0.331070	0.145070	0.028000
cgH 	H 	0.619950	0.283300	-0.054180	0.035000
cgH 	H 	0.582760	0.262660	-0.043460	0.058000
cgH 	H 	0.646030	0.350570	0.042410	0.052000
cgH 	H 	0.548710	0.294280	0.087250	0.022000
cgC 	C 	0.980240	0.285630	0.137640	-0.030000
cgH 	H 	0.967010	0.287780	0.157200	0.045000
cgH 	H 	0.990250	0.297590	0.073900	0.038000
cgH 	H 	0.988800	0.287510	0.220030	0.039000
cgC 	C 	0.758030	0.271490	0.082400	0.116000
cgC 	C 	0.771130	0.263170	0.079200	-0.081000
cgC 	C 	0.763350	0.241940	0.077730	-0.018000
cgC 	C 	0.778220	0.234500	0.075230	0.039000
cgN 	N 	0.772400	0.215450	0.053440	-0.113000
cgC 	C 	0.785320	0.206490	0.049910	0.087000
cgC 	C 	0.804870	0.215840	0.101770	-0.073000
cgC 	C 	0.816520	0.206120	0.099560	-0.015000
cgC 	C 	0.809070	0.186950	0.044320	-0.016000
cgC 	C 	0.789480	0.177750	-0.007620	-0.014000
cgC 	C 	0.777700	0.187310	-0.003190	-0.072000
cgC 	C 	0.821530	0.176530	0.042340	0.041000
cgC 	C 	0.843060	0.188030	0.042120	-0.078000
cgO 	O 	0.765550	0.292770	0.090640	-0.184000
cgH 	H 	0.787560	0.273180	0.077570	0.052000
cgH 	H 	0.810970	0.230230	0.148170	0.051000
cgH 	H 	0.831070	0.213410	0.145070	0.034000
cgH 	H 	0.783300	0.163350	-0.054180	0.027000
cgH 	H 	0.762660	0.179910	-0.043460	0.057000
cgH 	H 	0.850570	0.204540	0.042410	0.053000
cgH 	H 	0.794280	0.245570	0.087250	0.022000
cgC 	C 	0.785630	0.305390	0.137640	-0.030000
cgH 	H 	0.787780	0.320760	0.157200	0.044000
cgH 	H 	0.797590	0.307340	0.073900	0.038000
cgH 	H 	0.787510	0.298710	0.220030	0.039000
cgC 	C 	0.728510	0.486540	0.082400	0.116000
cgC 	C 	0.736830	0.007960	0.079200	-0.081000
cgC 	C 	0.758060	0.021410	0.077730	-0.017000
cgC 	C 	0.765500	0.043720	0.075230	0.039000
cgN 	N 	0.784550	0.056950	0.053440	-0.113000
cgC 	C 	0.793510	0.078830	0.049910	0.085000
cgC 	C 	0.784160	0.089030	0.101770	-0.071000
cgC 	C 	0.793880	0.110400	0.099560	-0.018000
cgC 	C 	0.813050	0.122130	0.044320	-0.012000
cgC 	C 	0.822250	0.111730	-0.007620	-0.025000
cgC 	C 	0.812690	0.090390	-0.003190	-0.068000
cgC 	C 	0.823470	0.145010	0.042340	0.041000
cgC 	C 	0.811970	0.155030	0.042120	-0.077000
cgO 	O 	0.707230	0.472780	0.090640	-0.184000
cgH 	H 	0.726820	0.014390	0.077570	0.053000
cgH 	H 	0.769770	0.080740	0.148170	0.051000
cgH 	H 	0.786590	0.117660	0.145070	0.035000
cgH 	H 	0.836650	0.119950	-0.054180	0.035000
cgH 	H 	0.820090	0.082760	-0.043460	0.055000
cgH 	H 	0.795460	0.146030	0.042410	0.052000
cgH 	H 	0.754430	0.048710	0.087250	0.022000
cgC 	C 	0.694610	0.480240	0.137640	-0.030000
cgH 	H 	0.679240	0.467010	0.157200	0.044000
cgH 	H 	0.692660	0.490240	0.073900	0.038000
cgH 	H 	0.701290	0.488800	0.220030	0.039000
cgC 	C 	0.513460	0.241970	0.082400	0.116000
cgC 	C 	0.992040	0.228870	0.079200	-0.081000
cgC 	C 	0.978590	0.236650	0.077730	-0.018000
cgC 	C 	0.956280	0.221780	0.075230	0.039000
cgN 	N 	0.943050	0.227600	0.053440	-0.113000
cgC 	C 	0.921170	0.214680	0.049910	0.086000
cgC 	C 	0.910970	0.195130	0.101770	-0.072000
cgC 	C 	0.889600	0.183480	0.099560	-0.017000
cgC 	C 	0.877870	0.190930	0.044320	-0.015000
cgC 	C 	0.888270	0.210520	-0.007620	-0.021000
cgC 	C 	0.909610	0.222300	-0.003190	-0.068000
cgC 	C 	0.854990	0.178470	0.042340	0.039000
cgC 	C 	0.844970	0.156940	0.042120	-0.077000
cgO 	O 	0.527220	0.234450	0.090640	-0.184000
cgH 	H 	0.985610	0.212440	0.077570	0.053000
cgH 	H 	0.919260	0.189030	0.148170	0.050000
cgH 	H 	0.882340	0.168930	0.145070	0.035000
cgH 	H 	0.880050	0.216700	-0.054180	0.031000
cgH 	H 	0.917240	0.237340	-0.043460	0.056000
cgH 	H 	0.853970	0.149430	0.042410	0.052000
cgH 	H 	0.951290	0.205720	0.087250	0.021000
cgC 	C 	0.519760	0.214370	0.137640	-0.030000
cgH 	H 	0.532980	0.212220	0.157200	0.044000
cgH 	H 	0.509750	0.202410	0.073900	0.038000
cgH 	H 	0.511190	0.212490	0.220030	0.039000
cgC 	C 	0.578230	0.394750	0.374510	0.115000
cgC 	C 	0.565140	0.403070	0.371310	-0.082000
cgC 	C 	0.572920	0.424300	0.369840	-0.018000
cgC 	C 	0.558050	0.431730	0.367340	0.039000
cgN 	N 	0.563870	0.450790	0.345550	-0.113000
cgC 	C 	0.550950	0.459750	0.342020	0.086000
cgC 	C 	0.531390	0.450390	0.393880	-0.073000
cgC 	C 	0.519740	0.460110	0.391680	-0.017000
cgC 	C 	0.527190	0.479290	0.336440	-0.015000
cgC 	C 	0.546780	0.488480	0.284490	-0.018000
cgC 	C 	0.558570	0.478920	0.288920	-0.069000
cgC 	C 	0.514730	0.489710	0.334450	0.039000
cgC 	C 	0.993210	0.478210	0.334240	-0.078000
cgO 	O 	0.570710	0.373460	0.382750	-0.185000
cgH 	H 	0.548700	0.393060	0.369690	0.053000
cgH 	H 	0.525290	0.436000	0.440280	0.049000
cgH 	H 	0.505190	0.452820	0.437180	0.033000
cgH 	H 	0.552960	0.002880	0.237930	0.035000
cgH 	H 	0.573600	0.486330	0.248650	0.058000
cgH 	H 	0.985690	0.461690	0.334530	0.050000
cgH 	H 	0.541990	0.420670	0.379360	0.021000
cgC 	C 	0.550640	0.360850	0.429750	-0.030000
cgH 	H 	0.548490	0.345470	0.449310	0.044000
cgH 	H 	0.538680	0.358890	0.366010	0.037000
cgH 	H 	0.548750	0.367530	0.512140	0.039000
cgC 	C 	0.607760	0.179690	0.374510	0.116000
cgC 	C 	0.599440	0.158280	0.371310	-0.082000
cgC 	C 	0.578210	0.144830	0.369840	-0.018000
cgC 	C 	0.570770	0.122520	0.367340	0.039000
cgN 	N 	0.551720	0.109290	0.345550	-0.113000
cgC 	C 	0.542760	0.087410	0.342020	0.086000
cgC 	C 	0.552110	0.077210	0.393880	-0.073000
cgC 	C 	0.542390	0.055840	0.391680	-0.018000
cgC 	C 	0.523220	0.044110	0.336440	-0.015000
cgC 	C 	0.514020	0.054510	0.284490	-0.018000
cgC 	C 	0.523580	0.075850	0.288920	-0.069000
cgC 	C 	0.512800	0.021230	0.334450	0.039000
cgC 	C 	0.524300	0.011210	0.334240	-0.078000
cgO 	O 	0.629040	0.193460	0.382750	-0.185000
cgH 	H 	0.609450	0.151850	0.369690	0.053000
cgH 	H 	0.566500	0.085500	0.440280	0.050000
cgH 	H 	0.549680	0.048580	0.437180	0.033000
cgH 	H 	0.999620	0.046290	0.237930	0.034000
cgH 	H 	0.516180	0.083480	0.248650	0.058000
cgH 	H 	0.540810	0.020210	0.334530	0.051000
cgH 	H 	0.581840	0.117530	0.379360	0.021000
cgC 	C 	0.641660	0.186000	0.429750	-0.030000
cgH 	H 	0.657030	0.199220	0.449310	0.044000
cgH 	H 	0.643610	0.175990	0.366010	0.037000
cgH 	H 	0.634980	0.177430	0.512140	0.039000
cgC 	C 	0.822810	0.424270	0.374510	0.116000
cgC 	C 	0.844230	0.437370	0.371310	-0.082000
cgC 	C 	0.857680	0.429590	0.369840	-0.017000
cgC 	C 	0.879980	0.444460	0.367340	0.039000
cgN 	N 	0.893220	0.438640	0.345550	-0.113000
cgC 	C 	0.915100	0.451560	0.342020	0.086000
cgC 	C 	0.925300	0.471110	0.393880	-0.073000
cgC 	C 	0.946670	0.482760	0.391680	-0.018000
cgC 	C 	0.958390	0.475310	0.336440	-0.014000
cgC 	C 	0.948000	0.455720	0.284490	-0.018000
cgC 	C 	0.926650	0.443940	0.288920	-0.069000
cgC 	C 	0.981270	0.487770	0.334450	0.039000
cgC 	C 	0.991300	0.009300	0.334240	-0.078000
cgO 	O 	0.809050	0.431790	0.382750	-0.185000
cgH 	H 	0.850650	0.453800	0.369690	0.053000
cgH 	H 	0.917010	0.477210	0.440280	0.049000
cgH 	H 	0.953930	0.497310	0.437180	0.034000
cgH 	H 	0.956220	0.449540	0.237930	0.035000
cgH 	H 	0.919020	0.428900	0.248650	0.058000
cgH 	H 	0.982300	0.016810	0.334530	0.051000
cgH 	H 	0.884980	0.460520	0.379360	0.022000
cgC 	C 	0.816510	0.451870	0.429750	-0.030000
cgH 	H 	0.803280	0.454020	0.449310	0.044000
cgH 	H 	0.826510	0.463830	0.366010	0.038000
cgH 	H 	0.825070	0.453750	0.512140	0.040000
cgC 	C 	0.594300	0.437730	0.374510	0.115000
cgC 	C 	0.607400	0.429410	0.371310	-0.082000
cgC 	C 	0.599620	0.408180	0.369840	-0.018000
cgC 	C 	0.614490	0.400740	0.367340	0.039000
cgN 	N 	0.608670	0.381690	0.345550	-0.113000
cgC 	C 	0.621590	0.372730	0.342020	0.086000
cgC 	C 	0.641140	0.382080	0.393880	-0.073000
cgC 	C 	0.652790	0.372360	0.391680	-0.016000
cgC 	C 	0.645340	0.353190	0.336440	-0.015000
cgC 	C 	0.625750	0.343990	0.284490	-0.019000
cgC 	C 	0.613970	0.353550	0.288920	-0.071000
cgC 	C 	0.657800	0.342770	0.334450	0.041000
cgC 	C 	0.679330	0.354270	0.334240	-0.078000
cgO 	O 	0.601820	0.459010	0.382750	-0.184000
cgH 	H 	0.623830	0.439420	0.369690	0.052000
cgH 	H 	0.647240	0.396470	0.440280	0.050000
cgH 	H 	0.667340	0.379650	0.437180	0.034000
cgH 	H 	0.619570	0.329590	0.237930	0.029000
cgH 	H 	0.598930	0.346150	0.248650	0.055000
cgH 	H 	0.686840	0.370780	0.334530	0.052000
cgH 	H 	0.630550	0.411810	0.379360	0.021000
cgC 	C 	0.621900	0.471630	0.429750	-0.030000
cgH 	H 	0.624050	0.487000	0.449310	0.045000
cgH 	H 	0.633860	0.473580	0.366010	0.037000
cgH 	H 	0.623780	0.464950	0.512140	0.039000
cgC 	C 	0.564780	0.152780	0.374510	0.115000
cgC 	C 	0.573100	0.174200	0.371310	-0.082000
cgC 	C 	0.594330	0.187650	0.369840	-0.018000
cgC 	C 	0.601760	0.209950	0.367340	0.039000
cgN 	N 	0.620820	0.223190	0.345550	-0.113000
cgC 	C 	0.629780	0.245070	0.342020	0.086000
cgC 	C 	0.620420	0.255270	0.393880	-0.073000
cgC 	C 	0.630140	0.276640	0.391680	-0.017000
cgC 	C 	0.649320	0.288360	0.336440	-0.015000
cgC 	C 	0.658510	0.277970	0.284490	-0.021000
cgC 	C 	0.648950	0.256620	0.288920	-0.069000
cgC 	C 	0.659740	0.311240	0.334450	0.040000
cgC 	C 	0.648240	0.321270	0.334240	-0.077000
cgO 	O 	0.543490	0.139020	0.382750	-0.184000
cgH 	H 	0.563090	0.180620	0.369690	0.052000
cgH 	H 	0.606030	0.246980	0.440280	0.050000
cgH 	H 	0.622850	0.283900	0.437180	0.034000
cgH 	H 	0.672910	0.286190	0.237930	0.030000
cgH 	H 	0.656360	0.248990	0.248650	0.055000
cgH 	H 	0.631720	0.312270	0.334530	0.052000
cgH 	H 	0.590700	0.214950	0.379360	0.021000
cgC 	C 	0.530880	0.146480	0.429750	-0.029000
cgH 	H 	0.515500	0.133250	0.449310	0.044000
cgH 	H 	0.528920	0.156480	0.366010	0.037000
cgH 	H 	0.537560	0.155040	0.512140	0.039000
cgC 	C 	0.849720	0.408200	0.374510	0.115000
cgC 	C 	0.828310	0.395110	0.371310	-0.081000
cgC 	C 	0.814860	0.402890	0.369840	-0.018000
cgC 	C 	0.792550	0.388020	0.367340	0.039000
cgN 	N 	0.779320	0.393840	0.345550	-0.113000
cgC 	C 	0.757440	0.380920	0.342020	0.087000
cgC 	C 	0.747240	0.361360	0.393880	-0.073000
cgC 	C 	0.725870	0.349710	0.391680	-0.016000
cgC 	C 	0.714140	0.357160	0.336440	-0.017000
cgC 	C 	0.724540	0.376750	0.284490	-0.016000
cgC 	C 	0.745880	0.388540	0.288920	-0.071000
cgC 	C 	0.691260	0.344700	0.334450	0.041000
cgC 	C 	0.681240	0.323180	0.334240	-0.078000
cgO 	O 	0.863490	0.400680	0.382750	-0.184000
cgH 	H 	0.821880	0.378670	0.369690	0.052000
cgH 	H 	0.755530	0.355260	0.440280	0.050000
cgH 	H 	0.718610	0.335160	0.437180	0.034000
cgH 	H 	0.716320	0.382930	0.237930	0.026000
cgH 	H 	0.753510	0.403570	0.248650	0.056000
cgH 	H 	0.690240	0.315660	0.334530	0.052000
cgH 	H 	0.787560	0.371960	0.379360	0.021000
cgC 	C 	0.856030	0.380610	0.429750	-0.030000
cgH 	H 	0.869250	0.378460	0.449310	0.045000
cgH 	H 	0.846020	0.368650	0.366010	0.037000
cgH 	H 	0.847460	0.378720	0.512140	0.039000
cgC 	C 	0.903160	0.053570	0.800810	0.115000
cgC 	C 	0.890070	0.061890	0.797620	-0.082000
cgC 	C 	0.897850	0.083120	0.796150	-0.018000
cgC 	C 	0.882980	0.090550	0.793640	0.039000
cgN 	N 	0.888800	0.109610	0.771850	-0.113000
cgC 	C 	0.875880	0.118570	0.768320	0.085000
cgC 	C 	0.856320	0.109210	0.820190	-0.071000
cgC 	C 	0.844670	0.118930	0.817980	-0.026000
cgC 	C 	0.852120	0.138110	0.762740	-0.014000
cgC 	C 	0.871710	0.147300	0.710790	-0.019000
cgC 	C 	0.883500	0.137740	0.715220	-0.069000
cgC 	C 	0.839660	0.148530	0.760750	0.039000
cgC 	C 	0.818140	0.137030	0.760540	-0.078000
cgO 	O 	0.895640	0.032280	0.809050	-0.185000
cgH 	H 	0.873630	0.051880	0.795990	0.053000
cgH 	H 	0.850220	0.094820	0.866590	0.048000
cgH 	H 	0.830120	0.111640	0.863490	0.031000
cgH 	H 	0.877890	0.161700	0.664230	0.035000
cgH 	H 	0.898530	0.145150	0.674960	0.058000
cgH 	H 	0.810620	0.120510	0.760830	0.052000
cgH 	H 	0.866920	0.079490	0.805670	0.022000
cgC 	C 	0.875570	0.019670	0.856060	-0.029000
cgH 	H 	0.873420	0.004290	0.875620	0.044000
cgH 	H 	0.863610	0.017710	0.792320	0.038000
cgH 	H 	0.873680	0.026350	0.938450	0.039000
cgC 	C 	0.932690	0.338510	0.800810	0.116000
cgC 	C 	0.924370	0.317100	0.797620	-0.082000
cgC 	C 	0.903140	0.303650	0.796150	-0.018000
cgC 	C 	0.895700	0.281340	0.793640	0.039000
cgN 	N 	0.876650	0.268110	0.771850	-0.113000
cgC 	C 	0.867690	0.246230	0.768320	0.086000
cgC 	C 	0.877040	0.236030	0.820190	-0.075000
cgC 	C 	0.867320	0.214660	0.817980	-0.021000
cgC 	C 	0.848150	0.202930	0.762740	-0.014000
cgC 	C 	0.838950	0.213330	0.710790	-0.018000
cgC 	C 	0.848510	0.234670	0.715220	-0.069000
cgC 	C 	0.837730	0.180050	0.760750	0.041000
cgC 	C 	0.849230	0.170030	0.760540	-0.077000
cgO 	O 	0.953970	0.352280	0.809050	-0.185000
cgH 	H 	0.934380	0.310670	0.795990	0.053000
cgH 	H 	0.891430	0.244320	0.866590	0.047000
cgH 	H 	0.874610	0.207400	0.863490	0.029000
cgH 	H 	0.824550	0.205110	0.664230	0.035000
cgH 	H 	0.841110	0.242300	0.674960	0.058000
cgH 	H 	0.865740	0.179030	0.760830	0.051000
cgH 	H 	0.906770	0.276350	0.805670	0.021000
cgC 	C 	0.966590	0.344820	0.856060	-0.030000
cgH 	H 	0.981960	0.358040	0.875620	0.044000
cgH 	H 	0.968540	0.334810	0.792320	0.038000
cgH 	H 	0.959910	0.336250	0.938450	0.039000
cgC 	C 	0.647740	0.083090	0.800810	0.115000
cgC 	C 	0.669160	0.096190	0.797620	-0.082000
cgC 	C 	0.682610	0.088410	0.796150	-0.018000
cgC 	C 	0.704910	0.103280	0.793640	0.039000
cgN 	N 	0.718150	0.097460	0.771850	-0.113000
cgC 	C 	0.740030	0.110380	0.768320	0.087000
cgC 	C 	0.750230	0.129930	0.820190	-0.076000
cgC 	C 	0.771600	0.141580	0.817980	-0.013000
cgC 	C 	0.783320	0.134130	0.762740	-0.018000
cgC 	C 	0.772930	0.114540	0.710790	-0.016000
cgC 	C 	0.751580	0.102760	0.715220	-0.071000
cgC 	C 	0.806200	0.146590	0.760750	0.040000
cgC 	C 	0.816230	0.168120	0.760540	-0.078000
cgO 	O 	0.633980	0.090610	0.809050	-0.185000
cgH 	H 	0.675580	0.112620	0.795990	0.053000
cgH 	H 	0.741940	0.136030	0.866590	0.049000
cgH 	H 	0.778860	0.156130	0.863490	0.023000
cgH 	H 	0.781150	0.108360	0.664230	0.034000
cgH 	H 	0.743950	0.087720	0.674960	0.058000
cgH 	H 	0.807230	0.175630	0.760830	0.051000
cgH 	H 	0.709910	0.119340	0.805670	0.021000
cgC 	C 	0.641440	0.110690	0.856060	-0.030000
cgH 	H 	0.628210	0.112840	0.875620	0.044000
cgH 	H 	0.651440	0.122650	0.792320	0.038000
cgH 	H 	0.650000	0.112570	0.938450	0.039000
cgC 	C 	0.919230	0.096550	0.800810	0.115000
cgC 	C 	0.932330	0.088230	0.797620	-0.082000
cgC 	C 	0.924550	0.067000	0.796150	-0.018000
cgC 	C 	0.939420	0.059560	0.793640	0.039000
cgN 	N 	0.933600	0.040510	0.771850	-0.113000
cgC 	C 	0.946520	0.031550	0.768320	0.086000
cgC 	C 	0.966070	0.040900	0.820190	-0.073000
cgC 	C 	0.977720	0.031180	0.817980	-0.018000
cgC 	C 	0.970270	0.012010	0.762740	-0.015000
cgC 	C 	0.950680	0.002810	0.710790	-0.019000
cgC 	C 	0.938900	0.012370	0.715220	-0.070000
cgC 	C 	0.982730	0.001590	0.760750	0.039000
cgC 	C 	0.504260	0.013090	0.760540	-0.078000
cgO 	O 	0.926750	0.117830	0.809050	-0.185000
cgH 	H 	0.948760	0.098240	0.795990	0.052000
cgH 	H 	0.972170	0.055290	0.866590	0.049000
cgH 	H 	0.992270	0.038470	0.863490	0.033000
cgH 	H 	0.944500	0.488410	0.664230	0.034000
cgH 	H 	0.923860	0.004970	0.674960	0.056000
cgH 	H 	0.511770	0.029600	0.760830	0.050000
cgH 	H 	0.955480	0.070630	0.805670	0.021000
cgC 	C 	0.946830	0.130450	0.856060	-0.029000
cgH 	H 	0.948980	0.145820	0.875620	0.043000
cgH 	H 	0.958790	0.132400	0.792320	0.038000
cgH 	H 	0.948710	0.123770	0.938450	0.038000
cgC 	C 	0.889710	0.311600	0.800810	0.115000
cgC 	C 	0.898030	0.333020	0.797620	-0.082000
cgC 	C 	0.919260	0.346470	0.796150	-0.018000
cgC 	C 	0.926690	0.368770	0.793640	0.039000
cgN 	N 	0.945750	0.382010	0.771850	-0.113000
cgC 	C 	0.954710	0.403890	0.768320	0.086000
cgC 	C 	0.945350	0.414090	0.820190	-0.073000
cgC 	C 	0.955070	0.435460	0.817980	-0.017000
cgC 	C 	0.974250	0.447180	0.762740	-0.015000
cgC 	C 	0.983440	0.436790	0.710790	-0.018000
cgC 	C 	0.973880	0.415440	0.715220	-0.070000
cgC 	C 	0.984670	0.470060	0.760750	0.039000
cgC 	C 	0.973170	0.480090	0.760540	-0.078000
cgO 	O 	0.868420	0.297840	0.809050	-0.185000
cgH 	H 	0.888020	0.339440	0.795990	0.052000
cgH 	H 	0.930960	0.405800	0.866590	0.050000
cgH 	H 	0.947780	0.442720	0.863490	0.033000
cgH 	H 	0.997840	0.445010	0.664230	0.032000
cgH 	H 	0.981290	0.407810	0.674960	0.056000
cgH 	H 	0.956650	0.471090	0.760830	0.050000
cgH 	H 	0.915630	0.373770	0.805670	0.021000
cgC 	C 	0.855810	0.305300	0.856060	-0.029000
cgH 	H 	0.840430	0.292070	0.875620	0.043000
cgH 	H 	0.853850	0.315300	0.792320	0.037000
cgH 	H 	0.862490	0.313860	0.938450	0.038000
cgC 	C 	0.674650	0.067020	0.800810	0.115000
cgC 	C 	0.653240	0.053930	0.797620	-0.082000
cgC 	C 	0.639790	0.061710	0.796150	-0.018000
cgC 	C 	0.617480	0.046840	0.793640	0.039000
cgN 	N 	0.604250	0.052660	0.771850	-0.113000
cgC 	C 	0.582370	0.039740	0.768320	0.086000
cgC 	C 	0.572170	0.020180	0.820190	-0.073000
cgC 	C 	0.550800	0.008530	0.817980	-0.017000
cgC 	C 	0.539070	0.015980	0.762740	-0.014000
cgC 	C 	0.549470	0.035570	0.710790	-0.019000
cgC 	C 	0.570810	0.047360	0.715220	-0.070000
cgC 	C 	0.516190	0.003520	0.760750	0.039000
cgC 	C 	0.506170	0.482000	0.760540	-0.078000
cgO 	O 	0.688420	0.059500	0.809050	-0.185000
cgH 	H 	0.646810	0.037490	0.795990	0.052000
cgH 	H 	0.580460	0.014080	0.866590	0.050000
cgH 	H 	0.543540	0.493980	0.863490	0.034000
cgH 	H 	0.541250	0.041750	0.664230	0.034000
cgH 	H 	0.578440	0.062390	0.674960	0.056000
cgH 	H 	0.515170	0.474480	0.760830	0.050000
cgH 	H 	0.612490	0.030780	0.805670	0.021000
cgC 	C 	0.680960	0.039430	0.856060	-0.029000
cgH 	H 	0.694180	0.037280	0.875620	0.043000
cgH 	H 	0.670950	0.027470	0.792320	0.038000
cgH 	H 	0.672390	0.037540	0.938450	0.038000
cgC 	C 	0.241970	0.728510	0.082400	0.116000
cgC 	C 	0.228870	0.736830	0.079200	-0.082000
cgC 	C 	0.236650	0.758060	0.077730	-0.017000
cgC 	C 	0.221780	0.765500	0.075230	0.039000
cgN 	N 	0.227600	0.784550	0.053440	-0.113000
cgC 	C 	0.214680	0.793510	0.049910	0.086000
cgC 	C 	0.195130	0.784160	0.101770	-0.074000
cgC 	C 	0.183480	0.793880	0.099560	-0.020000
cgC 	C 	0.190930	0.813050	0.044320	-0.014000
cgC 	C 	0.210520	0.822250	-0.007620	-0.017000
cgC 	C 	0.222300	0.812690	-0.003190	-0.069000
cgC 	C 	0.178470	0.823470	0.042340	0.041000
cgC 	C 	0.156940	0.811970	0.042120	-0.077000
cgO 	O 	0.234450	0.707230	0.090640	-0.184000
cgH 	H 	0.212440	0.726820	0.077570	0.053000
cgH 	H 	0.189030	0.769770	0.148170	0.049000
cgH 	H 	0.168930	0.786590	0.145070	0.030000
cgH 	H 	0.216700	0.836650	-0.054180	0.035000
cgH 	H 	0.237340	0.820090	-0.043460	0.058000
cgH 	H 	0.149430	0.795460	0.042410	0.052000
cgH 	H 	0.205720	0.754430	0.087250	0.022000
cgC 	C 	0.214370	0.694610	0.137640	-0.030000
cgH 	H 	0.212220	0.679240	0.157200	0.045000
cgH 	H 	0.202410	0.692660	0.073900	0.038000
cgH 	H 	0.212490	0.701290	0.220030	0.039000
cgC 	C 	0.271490	0.513450	0.082400	0.116000
cgC 	C 	0.263170	0.992040	0.079200	-0.082000
cgC 	C 	0.241940	0.978590	0.077730	-0.017000
cgC 	C 	0.234500	0.956280	0.075230	0.039000
cgN 	N 	0.215450	0.943050	0.053440	-0.113000
cgC 	C 	0.206490	0.921170	0.049910	0.087000
cgC 	C 	0.215840	0.910970	0.101770	-0.075000
cgC 	C 	0.206120	0.889600	0.099560	-0.015000
cgC 	C 	0.186950	0.877870	0.044320	-0.016000
cgC 	C 	0.177750	0.888270	-0.007620	-0.016000
cgC 	C 	0.187310	0.909610	-0.003190	-0.070000
cgC 	C 	0.176530	0.854990	0.042340	0.041000
cgC 	C 	0.188030	0.844970	0.042120	-0.078000
cgO 	O 	0.292770	0.527220	0.090640	-0.184000
cgH 	H 	0.273180	0.985610	0.077570	0.053000
cgH 	H 	0.230230	0.919260	0.148170	0.049000
cgH 	H 	0.213410	0.882340	0.145070	0.027000
cgH 	H 	0.163350	0.880050	-0.054180	0.035000
cgH 	H 	0.179910	0.917240	-0.043460	0.059000
cgH 	H 	0.204540	0.853970	0.042410	0.052000
cgH 	H 	0.245570	0.951290	0.087250	0.022000
cgC 	C 	0.305390	0.519760	0.137640	-0.030000
cgH 	H 	0.320760	0.532980	0.157200	0.045000
cgH 	H 	0.307340	0.509750	0.073900	0.038000
cgH 	H 	0.298710	0.511190	0.220030	0.040000
cgC 	C 	0.486550	0.758030	0.082400	0.116000
cgC 	C 	0.007960	0.771130	0.079200	-0.082000
cgC 	C 	0.021410	0.763350	0.077730	-0.017000
cgC 	C 	0.043720	0.778220	0.075230	0.039000
cgN 	N 	0.056950	0.772400	0.053440	-0.113000
cgC 	C 	0.078830	0.785320	0.049910	0.087000
cgC 	C 	0.089030	0.804870	0.101770	-0.074000
cgC 	C 	0.110400	0.816520	0.099560	-0.018000
cgC 	C 	0.122130	0.809070	0.044320	-0.016000
cgC 	C 	0.111730	0.789480	-0.007620	-0.017000
cgC 	C 	0.090390	0.777700	-0.003190	-0.070000
cgC 	C 	0.145010	0.821530	0.042340	0.040000
cgC 	C 	0.155030	0.843060	0.042120	-0.078000
cgO 	O 	0.472780	0.765550	0.090640	-0.184000
cgH 	H 	0.014390	0.787560	0.077570	0.053000
cgH 	H 	0.080740	0.810970	0.148170	0.049000
cgH 	H 	0.117660	0.831070	0.145070	0.028000
cgH 	H 	0.119950	0.783300	-0.054180	0.035000
cgH 	H 	0.082760	0.762660	-0.043460	0.058000
cgH 	H 	0.146030	0.850570	0.042410	0.052000
cgH 	H 	0.048710	0.794280	0.087250	0.022000
cgC 	C 	0.480240	0.785630	0.137640	-0.030000
cgH 	H 	0.467020	0.787780	0.157200	0.045000
cgH 	H 	0.490250	0.797590	0.073900	0.038000
cgH 	H 	0.488800	0.787510	0.220030	0.039000
cgC 	C 	0.258030	0.771490	0.082400	0.116000
cgC 	C 	0.271130	0.763170	0.079200	-0.081000
cgC 	C 	0.263350	0.741940	0.077730	-0.018000
cgC 	C 	0.278220	0.734500	0.075230	0.039000
cgN 	N 	0.272400	0.715450	0.053440	-0.113000
cgC 	C 	0.285320	0.706490	0.049910	0.087000
cgC 	C 	0.304870	0.715840	0.101770	-0.073000
cgC 	C 	0.316520	0.706120	0.099560	-0.015000
cgC 	C 	0.309070	0.686950	0.044320	-0.016000
cgC 	C 	0.289480	0.677750	-0.007620	-0.014000
cgC 	C 	0.277700	0.687310	-0.003190	-0.072000
cgC 	C 	0.321530	0.676530	0.042340	0.041000
cgC 	C 	0.343060	0.688030	0.042120	-0.078000
cgO 	O 	0.265550	0.792770	0.090640	-0.184000
cgH 	H 	0.287560	0.773180	0.077570	0.052000
cgH 	H 	0.310970	0.730230	0.148170	0.051000
cgH 	H 	0.331070	0.713410	0.145070	0.034000
cgH 	H 	0.283300	0.663350	-0.054180	0.027000
cgH 	H 	0.262660	0.679910	-0.043460	0.057000
cgH 	H 	0.350570	0.704540	0.042410	0.053000
cgH 	H 	0.294280	0.745570	0.087250	0.022000
cgC 	C 	0.285630	0.805390	0.137640	-0.030000
cgH 	H 	0.287780	0.820760	0.157200	0.044000
cgH 	H 	0.297590	0.807340	0.073900	0.038000
cgH 	H 	0.287510	0.798710	0.220030	0.039000
cgC 	C 	0.228510	0.986540	0.082400	0.116000
cgC 	C 	0.236830	0.507960	0.079200	-0.081000
cgC 	C 	0.258060	0.521410	0.077730	-0.017000
cgC 	C 	0.265500	0.543720	0.075230	0.039000
cgN 	N 	0.284550	0.556950	0.053440	-0.113000
cgC 	C 	0.293510	0.578830	0.049910	0.085000
cgC 	C 	0.284160	0.589030	0.101770	-0.071000
cgC 	C 	0.293880	0.610400	0.099560	-0.018000
cgC 	C 	0.313050	0.622130	0.044320	-0.012000
cgC 	C 	0.322250	0.611730	-0.007620	-0.025000
cgC 	C 	0.312690	0.590390	-0.003190	-0.068000
cgC 	C 	0.323470	0.645010	0.042340	0.041000
cgC 	C 	0.311970	0.655030	0.042120	-0.077000
cgO 	O 	0.207230	0.972780	0.090640	-0.184000
cgH 	H 	0.226820	0.514390	0.077570	0.053000
cgH 	H 	0.269770	0.580740	0.148170	0.051000
cgH 	H 	0.286590	0.617660	0.145070	0.035000
cgH 	H 	0.336650	0.619950	-0.054180	0.035000
cgH 	H 	0.320090	0.582760	-0.043460	0.055000
cgH 	H 	0.295460	0.646030	0.042410	0.052000
cgH 	H 	0.254430	0.548710	0.087250	0.022000
cgC 	C 	0.194610	0.980240	0.137640	-0.030000
cgH 	H 	0.179240	0.967010	0.157200	0.044000
cgH 	H 	0.192660	0.990240	0.073900	0.038000
cgH 	H 	0.201290	0.988800	0.220030	0.039000
cgC 	C 	0.013460	0.741970	0.082400	0.116000
cgC 	C 	0.492040	0.728870	0.079200	-0.081000
cgC 	C 	0.478590	0.736650	0.077730	-0.018000
cgC 	C 	0.456280	0.721780	0.075230	0.039000
cgN 	N 	0.443050	0.727600	0.053440	-0.113000
cgC 	C 	0.421170	0.714680	0.049910	0.086000
cgC 	C 	0.410970	0.695130	0.101770	-0.072000
cgC 	C 	0.389600	0.683480	0.099560	-0.017000
cgC 	C 	0.377870	0.690930	0.044320	-0.015000
cgC 	C 	0.388270	0.710520	-0.007620	-0.021000
cgC 	C 	0.409610	0.722300	-0.003190	-0.068000
cgC 	C 	0.354990	0.678470	0.042340	0.039000
cgC 	C 	0.344970	0.656940	0.042120	-0.077000
cgO 	O 	0.027220	0.734450	0.090640	-0.184000
cgH 	H 	0.485610	0.712440	0.077570	0.053000
cgH 	H 	0.419260	0.689030	0.148170	0.050000
cgH 	H 	0.382340	0.668930	0.145070	0.035000
cgH 	H 	0.380050	0.716700	-0.054180	0.031000
cgH 	H 	0.417240	0.737340	-0.043460	0.056000
cgH 	H 	0.353970	0.649430	0.042410	0.052000
cgH 	H 	0.451290	0.705720	0.087250	0.021000
cgC 	C 	0.019760	0.714370	0.137640	-0.030000
cgH 	H 	0.032980	0.712220	0.157200	0.044000
cgH 	H 	0.009750	0.702410	0.073900	0.038000
cgH 	H 	0.011200	0.712490	0.220030	0.039000
cgC 	C 	0.078230	0.894750	0.374510	0.115000
cgC 	C 	0.065140	0.903070	0.371310	-0.082000
cgC 	C 	0.072920	0.924300	0.369840	-0.018000
cgC 	C 	0.058050	0.931730	0.367340	0.039000
cgN 	N 	0.063870	0.950790	0.345550	-0.113000
cgC 	C 	0.050950	0.959750	0.342020	0.086000
cgC 	C 	0.031390	0.950390	0.393880	-0.073000
cgC 	C 	0.019740	0.960110	0.391680	-0.017000
cgC 	C 	0.027190	0.979290	0.336440	-0.015000
cgC 	C 	0.046780	0.988480	0.284490	-0.018000
cgC 	C 	0.058570	0.978920	0.288920	-0.069000
cgC 	C 	0.014730	0.989710	0.334450	0.039000
cgC 	C 	0.493210	0.978210	0.334240	-0.078000
cgO 	O 	0.070710	0.873460	0.382750	-0.185000
cgH 	H 	0.048700	0.893060	0.369690	0.053000
cgH 	H 	0.025290	0.936000	0.440280	0.049000
cgH 	H 	0.005190	0.952820	0.437180	0.033000
cgH 	H 	0.052960	0.502880	0.237930	0.035000
cgH 	H 	0.073600	0.986330	0.248650	0.058000
cgH 	H 	0.485690	0.961690	0.334530	0.050000
cgH 	H 	0.041990	0.920670	0.379360	0.021000
cgC 	C 	0.050640	0.860850	0.429750	-0.030000
cgH 	H 	0.048490	0.845470	0.449310	0.044000
cgH 	H 	0.038680	0.858890	0.366010	0.037000
cgH 	H 	0.048750	0.867530	0.512140	0.039000
cgC 	C 	0.107760	0.679690	0.374510	0.116000
cgC 	C 	0.099440	0.658280	0.371310	-0.082000
cgC 	C 	0.078210	0.644830	0.369840	-0.018000
cgC 	C 	0.070770	0.622520	0.367340	0.039000
cgN 	N 	0.051720	0.609290	0.345550	-0.113000
cgC 	C 	0.042760	0.587410	0.342020	0.086000
cgC 	C 	0.052110	0.577210	0.393880	-0.073000
cgC 	C 	0.042390	0.555840	0.391680	-0.018000
cgC 	C 	0.023220	0.544110	0.336440	-0.015000
cgC 	C 	0.014020	0.554510	0.284490	-0.018000
cgC 	C 	0.023580	0.575850	0.288920	-0.069000
cgC 	C 	0.012800	0.521230	0.334450	0.039000
cgC 	C 	0.024300	0.511210	0.334240	-0.078000
cgO 	O 	0.129040	0.693460	0.382750	-0.185000
cgH 	H 	0.109450	0.651850	0.369690	0.053000
cgH 	H 	0.066500	0.585500	0.440280	0.050000
cgH 	H 	0.049680	0.548580	0.437180	0.033000
cgH 	H 	0.499620	0.546290	0.237930	0.034000
cgH 	H 	0.016180	0.583480	0.248650	0.058000
cgH 	H 	0.040810	0.520210	0.334530	0.051000
cgH 	H 	0.081840	0.617530	0.379360	0.021000
cgC 	C 	0.141660	0.686000	0.429750	-0.030000
cgH 	H 	0.157030	0.699220	0.449310	0.044000
cgH 	H 	0.143610	0.675990	0.366010	0.037000
cgH 	H 	0.134980	0.677430	0.512140	0.039000
cgC 	C 	0.322810	0.924270	0.374510	0.116000
cgC 	C 	0.344230	0.937370	0.371310	-0.082000
cgC 	C 	0.357680	0.929590	0.369840	-0.017000
cgC 	C 	0.379980	0.944460	0.367340	0.039000
cgN 	N 	0.393220	0.938640	0.345550	-0.113000
cgC 	C 	0.415100	0.951560	0.342020	0.086000
cgC 	C 	0.425300	0.971110	0.393880	-0.073000
cgC 	C 	0.446670	0.982760	0.391680	-0.018000
cgC 	C 	0.458390	0.975310	0.336440	-0.014000
cgC 	C 	0.448000	0.955720	0.284490	-0.018000
cgC 	C 	0.426650	0.943940	0.288920	-0.069000
cgC 	C 	0.481270	0.987770	0.334450	0.039000
cgC 	C 	0.491300	0.509300	0.334240	-0.078000
cgO 	O 	0.309050	0.931790	0.382750	-0.185000
cgH 	H 	0.350650	0.953800	0.369690	0.053000
cgH 	H 	0.417010	0.977210	0.440280	0.049000
cgH 	H 	0.453930	0.997310	0.437180	0.034000
cgH 	H 	0.456220	0.949540	0.237930	0.035000
cgH 	H 	0.419020	0.928900	0.248650	0.058000
cgH 	H 	0.482300	0.516810	0.334530	0.051000
cgH 	H 	0.384980	0.960520	0.379360	0.022000
cgC 	C 	0.316510	0.951870	0.429750	-0.030000
cgH 	H 	0.303280	0.954020	0.449310	0.044000
cgH 	H 	0.326510	0.963830	0.366010	0.038000
cgH 	H 	0.325070	0.953750	0.512140	0.040000
cgC 	C 	0.094300	0.937730	0.374510	0.115000
cgC 	C 	0.107400	0.929410	0.371310	-0.082000
cgC 	C 	0.099620	0.908180	0.369840	-0.018000
cgC 	C 	0.114490	0.900740	0.367340	0.039000
cgN 	N 	0.108670	0.881690	0.345550	-0.113000
cgC 	C 	0.121590	0.872730	0.342020	0.086000
cgC 	C 	0.141140	0.882080	0.393880	-0.073000
cgC 	C 	0.152790	0.872360	0.391680	-0.016000
cgC 	C 	0.145340	0.853190	0.336440	-0.015000
cgC 	C 	0.125750	0.843990	0.284490	-0.019000
cgC 	C 	0.113970	0.853550	0.288920	-0.071000
cgC 	C 	0.157800	0.842770	0.334450	0.041000
cgC 	C 	0.179330	0.854270	0.334240	-0.078000
cgO 	O 	0.101820	0.959010	0.382750	-0.184000
cgH 	H 	0.123830	0.939420	0.369690	0.052000
cgH 	H 	0.147240	0.896470	0.440280	0.050000
cgH 	H 	0.167340	0.879650	0.437180	0.034000
cgH 	H 	0.119570	0.829590	0.237930	0.029000
cgH 	H 	0.098930	0.846150	0.248650	0.055000
cgH 	H 	0.186840	0.870780	0.334530	0.052000
cgH 	H 	0.130550	0.911810	0.379360	0.021000
cgC 	C 	0.121900	0.971630	0.429750	-0.030000
cgH 	H 	0.124050	0.987000	0.449310	0.045000
cgH 	H 	0.133860	0.973580	0.366010	0.037000
cgH 	H 	0.123780	0.964950	0.512140	0.039000
cgC 	C 	0.064780	0.652780	0.374510	0.115000
cgC 	C 	0.073100	0.674200	0.371310	-0.082000
cgC 	C 	0.094330	0.687650	0.369840	-0.018000
cgC 	C 	0.101760	0.709950	0.367340	0.039000
cgN 	N 	0.120820	0.723190	0.345550	-0.113000
cgC 	C 	0.129780	0.745070	0.342020	0.086000
cgC 	C 	0.120420	0.755270	0.393880	-0.073000
cgC 	C 	0.130140	0.776640	0.391680	-0.017000
cgC 	C 	0.149320	0.788360	0.336440	-0.015000
cgC 	C 	0.158510	0.777970	0.284490	-0.021000
cgC 	C 	0.148950	0.756620	0.288920	-0.069000
cgC 	C 	0.159740	0.811240	0.334450	0.040000
cgC 	C 	0.148240	0.821270	0.334240	-0.077000
cgO 	O 	0.043490	0.639020	0.382750	-0.184000
cgH 	H 	0.063090	0.680620	0.369690	0.052000
cgH 	H 	0.106030	0.746980	0.440280	0.050000
cgH 	H 	0.122850	0.783900	0.437180	0.034000
cgH 	H 	0.172910	0.786190	0.237930	0.030000
cgH 	H 	0.156360	0.748990	0.248650	0.055000
cgH 	H 	0.131720	0.812270	0.334530	0.052000
cgH 	H 	0.090700	0.714950	0.379360	0.021000
cgC 	C 	0.030880	0.646480	0.429750	-0.029000
cgH 	H 	0.015500	0.633250	0.449310	0.044000
cgH 	H 	0.028920	0.656480	0.366010	0.037000
cgH 	H 	0.037560	0.655040	0.512140	0.039000
cgC 	C 	0.349720	0.908200	0.374510	0.115000
cgC 	C 	0.328310	0.895110	0.371310	-0.081000
cgC 	C 	0.314860	0.902890	0.369840	-0.018000
cgC 	C 	0.292550	0.888020	0.367340	0.039000
cgN 	N 	0.279320	0.893840	0.345550	-0.113000
cgC 	C 	0.257440	0.880920	0.342020	0.087000
cgC 	C 	0.247240	0.861360	0.393880	-0.073000
cgC 	C 	0.225870	0.849710	0.391680	-0.016000
cgC 	C 	0.214140	0.857160	0.336440	-0.017000
cgC 	C 	0.224540	0.876750	0.284490	-0.016000
cgC 	C 	0.245880	0.888540	0.288920	-0.071000
cgC 	C 	0.191260	0.844700	0.334450	0.041000
cgC 	C 	0.181240	0.823180	0.334240	-0.078000
cgO 	O 	0.363490	0.900680	0.382750	-0.184000
cgH 	H 	0.321880	0.878670	0.369690	0.052000
cgH 	H 	0.255530	0.855260	0.440280	0.050000
cgH 	H 	0.218610	0.835160	0.437180	0.034000
cgH 	H 	0.216320	0.882930	0.237930	0.026000
cgH 	H 	0.253510	0.903570	0.248650	0.056000
cgH 	H 	0.190240	0.815660	0.334530	0.052000
cgH 	H 	0.287560	0.871960	0.379360	0.021000
cgC 	C 	0.356030	0.880610	0.429750	-0.030000
cgH 	H 	0.369250	0.878460	0.449310	0.045000
cgH 	H 	0.346020	0.868650	0.366010	0.037000
cgH 	H 	0.347460	0.878720	0.512140	0.039000
cgC 	C 	0.403160	0.553570	0.800810	0.115000
cgC 	C 	0.390070	0.561890	0.797620	-0.082000
cgC 	C 	0.397850	0.583120	0.796150	-0.018000
cgC 	C 	0.382980	0.590550	0.793640	0.039000
cgN 	N 	0.388800	0.609610	0.771850	-0.113000
cgC 	C 	0.375880	0.618570	0.768320	0.085000
cgC 	C 	0.356320	0.609210	0.820190	-0.071000
cgC 	C 	0.344670	0.618930	0.817980	-0.026000
cgC 	C 	0.352120	0.638110	0.762740	-0.014000
cgC 	C 	0.371710	0.647300	0.710790	-0.019000
cgC 	C 	0.383500	0.637740	0.715220	-0.069000
cgC 	C 	0.339660	0.648530	0.760750	0.039000
cgC 	C 	0.318140	0.637030	0.760540	-0.078000
cgO 	O 	0.395640	0.532280	0.809050	-0.185000
cgH 	H 	0.373630	0.551880	0.795990	0.053000
cgH 	H 	0.350220	0.594820	0.866590	0.048000
cgH 	H 	0.330120	0.611640	0.863490	0.031000
cgH 	H 	0.377890	0.661700	0.664230	0.035000
cgH 	H 	0.398530	0.645150	0.674960	0.058000
cgH 	H 	0.310620	0.620510	0.760830	0.052000
cgH 	H 	0.366920	0.579490	0.805670	0.022000
cgC 	C 	0.375570	0.519670	0.856060	-0.029000
cgH 	H 	0.373420	0.504290	0.875620	0.044000
cgH 	H 	0.363610	0.517710	0.792320	0.038000
cgH 	H 	0.373680	0.526350	0.938450	0.039000
cgC 	C 	0.432690	0.838510	0.800810	0.116000
cgC 	C 	0.424370	0.817100	0.797620	-0.082000
cgC 	C 	0.403140	0.803650	0.796150	-0.018000
cgC 	C 	0.395700	0.781340	0.793640	0.039000
cgN 	N 	0.376650	0.768110	0.771850	-0.113000
cgC 	C 	0.367690	0.746230	0.768320	0.086000
cgC 	C 	0.377040	0.736030	0.820190	-0.075000
cgC 	C 	0.367320	0.714660	0.817980	-0.021000
cgC 	C 	0.348150	0.702930	0.762740	-0.014000
cgC 	C 	0.338950	0.713330	0.710790	-0.018000
cgC 	C 	0.348510	0.734670	0.715220	-0.069000
cgC 	C 	0.337730	0.680050	0.760750	0.041000
cgC 	C 	0.349230	0.670030	0.760540	-0.077000
cgO 	O 	0.453970	0.852280	0.809050	-0.185000
cgH 	H 	0.434380	0.810670	0.795990	0.053000
cgH 	H 	0.391430	0.744320	0.866590	0.047000
cgH 	H 	0.374610	0.707400	0.863490	0.029000
cgH 	H 	0.324550	0.705110	0.664230	0.035000
cgH 	H 	0.341110	0.742300	0.674960	0.058000
cgH 	H 	0.365740	0.679030	0.760830	0.051000
cgH 	H 	0.406770	0.776350	0.805670	0.021000
cgC 	C 	0.466590	0.844820	0.856060	-0.030000
cgH 	H 	0.481960	0.858040	0.875620	0.044000
cgH 	H 	0.468540	0.834810	0.792320	0.038000
cgH 	H 	0.459910	0.836250	0.938450	0.039000
cgC 	C 	0.147740	0.583090	0.800810	0.115000
cgC 	C 	0.169160	0.596190	0.797620	-0.082000
cgC 	C 	0.182610	0.588410	0.796150	-0.018000
cgC 	C 	0.204910	0.603280	0.793640	0.039000
cgN 	N 	0.218150	0.597460	0.771850	-0.113000
cgC 	C 	0.240030	0.610380	0.768320	0.087000
cgC 	C 	0.250230	0.629930	0.820190	-0.076000
cgC 	C 	0.271600	0.641580	0.817980	-0.013000
cgC 	C 	0.283320	0.634130	0.762740	-0.018000
cgC 	C 	0.272930	0.614540	0.710790	-0.016000
cgC 	C 	0.251580	0.602760	0.715220	-0.071000
cgC 	C 	0.306200	0.646590	0.760750	0.040000
cgC 	C 	0.316230	0.668120	0.760540	-0.078000
cgO 	O 	0.133980	0.590610	0.809050	-0.185000
cgH 	H 	0.175580	0.612620	0.795990	0.053000
cgH 	H 	0.241940	0.636030	0.866590	0.049000
cgH 	H 	0.278860	0.656130	0.863490	0.023000
cgH 	H 	0.281150	0.608360	0.664230	0.034000
cgH 	H 	0.243950	0.587720	0.674960	0.058000
cgH 	H 	0.307230	0.675630	0.760830	0.051000
cgH 	H 	0.209910	0.619340	0.805670	0.021000
cgC 	C 	0.141440	0.610690	0.856060	-0.030000
cgH 	H 	0.128210	0.612840	0.875620	0.044000
cgH 	H 	0.151440	0.622650	0.792320	0.038000
cgH 	H 	0.150000	0.612570	0.938450	0.039000
cgC 	C 	0.419230	0.596550	0.800810	0.115000
cgC 	C 	0.432330	0.588230	0.797620	-0.082000
cgC 	C 	0.424550	0.567000	0.796150	-0.018000
cgC 	C 	0.439420	0.559560	0.793640	0.039000
cgN 	N 	0.433600	0.540510	0.771850	-0.113000
cgC 	C 	0.446520	0.531550	0.768320	0.086000
cgC 	C 	0.466070	0.540900	0.820190	-0.073000
cgC 	C 	0.477720	0.531180	0.817980	-0.018000
cgC 	C 	0.470270	0.512010	0.762740	-0.015000
cgC 	C 	0.450680	0.502810	0.710790	-0.019000
cgC 	C 	0.438900	0.512370	0.715220	-0.070000
cgC 	C 	0.482730	0.501590	0.760750	0.039000
cgC 	C 	0.004260	0.513090	0.760540	-0.078000
cgO 	O 	0.426750	0.617830	0.809050	-0.185000
cgH 	H 	0.448760	0.598240	0.795990	0.052000
cgH 	H 	0.472170	0.555290	0.866590	0.049000
cgH 	H 	0.492270	0.538470	0.863490	0.033000
cgH 	H 	0.444500	0.988410	0.664230	0.034000
cgH 	H 	0.423860	0.504970	0.674960	0.056000
cgH 	H 	0.011770	0.529600	0.760830	0.050000
cgH 	H 	0.455480	0.570630	0.805670	0.021000
cgC 	C 	0.446830	0.630450	0.856060	-0.029000
cgH 	H 	0.448980	0.645820	0.875620	0.043000
cgH 	H 	0.458790	0.632400	0.792320	0.038000
cgH 	H 	0.448710	0.623770	0.938450	0.038000
cgC 	C 	0.389710	0.811600	0.800810	0.115000
cgC 	C 	0.398030	0.833020	0.797620	-0.082000
cgC 	C 	0.419260	0.846470	0.796150	-0.018000
cgC 	C 	0.426690	0.868770	0.793640	0.039000
cgN 	N 	0.445750	0.882010	0.771850	-0.113000
cgC 	C 	0.454710	0.903890	0.768320	0.086000
cgC 	C 	0.445350	0.914090	0.820190	-0.073000
cgC 	C 	0.455070	0.935460	0.817980	-0.017000
cgC 	C 	0.474250	0.947180	0.762740	-0.015000
cgC 	C 	0.483440	0.936790	0.710790	-0.018000
cgC 	C 	0.473880	0.915440	0.715220	-0.070000
cgC 	C 	0.484670	0.970060	0.760750	0.039000
cgC 	C 	0.473170	0.980090	0.760540	-0.078000
cgO 	O 	0.368420	0.797840	0.809050	-0.185000
cgH 	H 	0.388020	0.839440	0.795990	0.052000
cgH 	H 	0.430960	0.905800	0.866590	0.050000
cgH 	H 	0.447780	0.942720	0.863490	0.033000
cgH 	H 	0.497840	0.945010	0.664230	0.032000
cgH 	H 	0.481290	0.907810	0.674960	0.056000
cgH 	H 	0.456650	0.971090	0.760830	0.050000
cgH 	H 	0.415630	0.873770	0.805670	0.021000
cgC 	C 	0.355810	0.805300	0.856060	-0.029000
cgH 	H 	0.340430	0.792070	0.875620	0.043000
cgH 	H 	0.353850	0.815300	0.792320	0.037000
cgH 	H 	0.362490	0.813860	0.938450	0.038000
cgC 	C 	0.174650	0.567020	0.800810	0.115000
cgC 	C 	0.153240	0.553930	0.797620	-0.082000
cgC 	C 	0.139790	0.561710	0.796150	-0.018000
cgC 	C 	0.117480	0.546840	0.793640	0.039000
cgN 	N 	0.104250	0.552660	0.771850	-0.113000
cgC 	C 	0.082370	0.539740	0.768320	0.086000
cgC 	C 	0.072170	0.520180	0.820190	-0.073000
cgC 	C 	0.050800	0.508530	0.817980	-0.017000
cgC 	C 	0.039070	0.515980	0.762740	-0.014000
cgC 	C 	0.049470	0.535570	0.710790	-0.019000
cgC 	C 	0.070810	0.547360	0.715220	-0.070000
cgC 	C 	0.016190	0.503520	0.760750	0.039000
cgC 	C 	0.006170	0.982000	0.760540	-0.078000
cgO 	O 	0.188420	0.559500	0.809050	-0.185000
cgH 	H 	0.146810	0.537490	0.795990	0.052000
cgH 	H 	0.080460	0.514080	0.866590	0.050000
cgH 	H 	0.043540	0.993980	0.863490	0.034000
cgH 	H 	0.041250	0.541750	0.664230	0.034000
cgH 	H 	0.078440	0.562390	0.674960	0.056000
cgH 	H 	0.015170	0.974480	0.760830	0.050000
cgH 	H 	0.112490	0.530780	0.805670	0.021000
cgC 	C 	0.180960	0.539430	0.856060	-0.029000
cgH 	H 	0.194180	0.537280	0.875620	0.043000
cgH 	H 	0.170950	0.527470	0.792320	0.038000
cgH 	H 	0.172390	0.537540	0.938450	0.038000
cgC 	C 	0.741970	0.728510	0.082400	0.116000
cgC 	C 	0.728870	0.736830	0.079200	-0.082000
cgC 	C 	0.736650	0.758060	0.077730	-0.017000
cgC 	C 	0.721780	0.765500	0.075230	0.039000
cgN 	N 	0.727600	0.784550	0.053440	-0.113000
cgC 	C 	0.714680	0.793510	0.049910	0.086000
cgC 	C 	0.695130	0.784160	0.101770	-0.074000
cgC 	C 	0.683480	0.793880	0.099560	-0.020000
cgC 	C 	0.690930	0.813050	0.044320	-0.014000
cgC 	C 	0.710520	0.822250	-0.007620	-0.017000
cgC 	C 	0.722300	0.812690	-0.003190	-0.069000
cgC 	C 	0.678470	0.823470	0.042340	0.041000
cgC 	C 	0.656940	0.811970	0.042120	-0.077000
cgO 	O 	0.734450	0.707230	0.090640	-0.184000
cgH 	H 	0.712440	0.726820	0.077570	0.053000
cgH 	H 	0.689030	0.769770	0.148170	0.049000
cgH 	H 	0.668930	0.786590	0.145070	0.030000
cgH 	H 	0.716700	0.836650	-0.054180	0.035000
cgH 	H 	0.737340	0.820090	-0.043460	0.058000
cgH 	H 	0.649430	0.795460	0.042410	0.052000
cgH 	H 	0.705720	0.754430	0.087250	0.022000
cgC 	C 	0.714370	0.694610	0.137640	-0.030000
cgH 	H 	0.712220	0.679240	0.157200	0.045000
cgH 	H 	0.702410	0.692660	0.073900	0.038000
cgH 	H 	0.712490	0.701290	0.220030	0.039000
cgC 	C 	0.771490	0.513450	0.082400	0.116000
cgC 	C 	0.763170	0.992040	0.079200	-0.082000
cgC 	C 	0.741940	0.978590	0.077730	-0.017000
cgC 	C 	0.734500	0.956280	0.075230	0.039000
cgN 	N 	0.715450	0.943050	0.053440	-0.113000
cgC 	C 	0.706490	0.921170	0.049910	0.087000
cgC 	C 	0.715840	0.910970	0.101770	-0.075000
cgC 	C 	0.706120	0.889600	0.099560	-0.015000
cgC 	C 	0.686950	0.877870	0.044320	-0.016000
cgC 	C 	0.677750	0.888270	-0.007620	-0.016000
cgC 	C 	0.687310	0.909610	-0.003190	-0.070000
cgC 	C 	0.676530	0.854990	0.042340	0.041000
cgC 	C 	0.688030	0.844970	0.042120	-0.078000
cgO 	O 	0.792770	0.527220	0.090640	-0.184000
cgH 	H 	0.773180	0.985610	0.077570	0.053000
cgH 	H 	0.730230	0.919260	0.148170	0.049000
cgH 	H 	0.713410	0.882340	0.145070	0.027000
cgH 	H 	0.663350	0.880050	-0.054180	0.035000
cgH 	H 	0.679910	0.917240	-0.043460	0.059000
cgH 	H 	0.704540	0.853970	0.042410	0.052000
cgH 	H 	0.745570	0.951290	0.087250	0.022000
cgC 	C 	0.805390	0.519760	0.137640	-0.030000
cgH 	H 	0.820760	0.532980	0.157200	0.045000
cgH 	H 	0.807340	0.509750	0.073900	0.038000
cgH 	H 	0.798710	0.511190	0.220030	0.040000
cgC 	C 	0.986540	0.758030	0.082400	0.116000
cgC 	C 	0.507960	0.771130	0.079200	-0.082000
cgC 	C 	0.521410	0.763350	0.077730	-0.017000
cgC 	C 	0.543720	0.778220	0.075230	0.039000
cgN 	N 	0.556950	0.772400	0.053440	-0.113000
cgC 	C 	0.578830	0.785320	0.049910	0.087000
cgC 	C 	0.589030	0.804870	0.101770	-0.074000
cgC 	C 	0.610400	0.816520	0.099560	-0.018000
cgC 	C 	0.622130	0.809070	0.044320	-0.016000
cgC 	C 	0.611730	0.789480	-0.007620	-0.017000
cgC 	C 	0.590390	0.777700	-0.003190	-0.070000
cgC 	C 	0.645010	0.821530	0.042340	0.040000
cgC 	C 	0.655030	0.843060	0.042120	-0.078000
cgO 	O 	0.972780	0.765550	0.090640	-0.184000
cgH 	H 	0.514390	0.787560	0.077570	0.053000
cgH 	H 	0.580740	0.810970	0.148170	0.049000
cgH 	H 	0.617660	0.831070	0.145070	0.028000
cgH 	H 	0.619950	0.783300	-0.054180	0.035000
cgH 	H 	0.582760	0.762660	-0.043460	0.058000
cgH 	H 	0.646030	0.850570	0.042410	0.052000
cgH 	H 	0.548710	0.794280	0.087250	0.022000
cgC 	C 	0.980240	0.785630	0.137640	-0.030000
cgH 	H 	0.967010	0.787780	0.157200	0.045000
cgH 	H 	0.990250	0.797590	0.073900	0.038000
cgH 	H 	0.988800	0.787510	0.220030	0.039000
cgC 	C 	0.758030	0.771490	0.082400	0.116000
cgC 	C 	0.771130	0.763170	0.079200	-0.081000
cgC 	C 	0.763350	0.741940	0.077730	-0.018000
cgC 	C 	0.778220	0.734500	0.075230	0.039000
cgN 	N 	0.772400	0.715450	0.053440	-0.113000
cgC 	C 	0.785320	0.706490	0.049910	0.087000
cgC 	C 	0.804870	0.715840	0.101770	-0.073000
cgC 	C 	0.816520	0.706120	0.099560	-0.015000
cgC 	C 	0.809070	0.686950	0.044320	-0.016000
cgC 	C 	0.789480	0.677750	-0.007620	-0.014000
cgC 	C 	0.777700	0.687310	-0.003190	-0.072000
cgC 	C 	0.821530	0.676530	0.042340	0.041000
cgC 	C 	0.843060	0.688030	0.042120	-0.078000
cgO 	O 	0.765550	0.792770	0.090640	-0.184000
cgH 	H 	0.787560	0.773180	0.077570	0.052000
cgH 	H 	0.810970	0.730230	0.148170	0.051000
cgH 	H 	0.831070	0.713410	0.145070	0.034000
cgH 	H 	0.783300	0.663350	-0.054180	0.027000
cgH 	H 	0.762660	0.679910	-0.043460	0.057000
cgH 	H 	0.850570	0.704540	0.042410	0.053000
cgH 	H 	0.794280	0.745570	0.087250	0.022000
cgC 	C 	0.785630	0.805390	0.137640	-0.030000
cgH 	H 	0.787780	0.820760	0.157200	0.044000
cgH 	H 	0.797590	0.807340	0.073900	0.038000
cgH 	H 	0.787510	0.798710	0.220030	0.039000
cgC 	C 	0.728510	0.986540	0.082400	0.116000
cgC 	C 	0.736830	0.507960	0.079200	-0.081000
cgC 	C 	0.758060	0.521410	0.077730	-0.017000
cgC 	C 	0.765500	0.543720	0.075230	0.039000
cgN 	N 	0.784550	0.556950	0.053440	-0.113000
cgC 	C 	0.793510	0.578830	0.049910	0.085000
cgC 	C 	0.784160	0.589030	0.101770	-0.071000
cgC 	C 	0.793880	0.610400	0.099560	-0.018000
cgC 	C 	0.813050	0.622130	0.044320	-0.012000
cgC 	C 	0.822250	0.611730	-0.007620	-0.025000
cgC 	C 	0.812690	0.590390	-0.003190	-0.068000
cgC 	C 	0.823470	0.645010	0.042340	0.041000
cgC 	C 	0.811970	0.655030	0.042120	-0.077000
cgO 	O 	0.707230	0.972780	0.090640	-0.184000
cgH 	H 	0.726820	0.514390	0.077570	0.053000
cgH 	H 	0.769770	0.580740	0.148170	0.051000
cgH 	H 	0.786590	0.617660	0.145070	0.035000
cgH 	H 	0.836650	0.619950	-0.054180	0.035000
cgH 	H 	0.820090	0.582760	-0.043460	0.055000
cgH 	H 	0.795460	0.646030	0.042410	0.052000
cgH 	H 	0.754430	0.548710	0.087250	0.022000
cgC 	C 	0.694610	0.980240	0.137640	-0.030000
cgH 	H 	0.679240	0.967010	0.157200	0.044000
cgH 	H 	0.692660	0.990240	0.073900	0.038000
cgH 	H 	0.701290	0.988800	0.220030	0.039000
cgC 	C 	0.513460	0.741970	0.082400	0.116000
cgC 	C 	0.992040	0.728870	0.079200	-0.081000
cgC 	C 	0.978590	0.736650	0.077730	-0.018000
cgC 	C 	0.956280	0.721780	0.075230	0.039000
cgN 	N 	0.943050	0.727600	0.053440	-0.113000
cgC 	C 	0.921170	0.714680	0.049910	0.086000
cgC 	C 	0.910970	0.695130	0.101770	-0.072000
cgC 	C 	0.889600	0.683480	0.099560	-0.017000
cgC 	C 	0.877870	0.690930	0.044320	-0.015000
cgC 	C 	0.888270	0.710520	-0.007620	-0.021000
cgC 	C 	0.909610	0.722300	-0.003190	-0.068000
cgC 	C 	0.854990	0.678470	0.042340	0.039000
cgC 	C 	0.844970	0.656940	0.042120	-0.077000
cgO 	O 	0.527220	0.734450	0.090640	-0.184000
cgH 	H 	0.985610	0.712440	0.077570	0.053000
cgH 	H 	0.919260	0.689030	0.148170	0.050000
cgH 	H 	0.882340	0.668930	0.145070	0.035000
cgH 	H 	0.880050	0.716700	-0.054180	0.031000
cgH 	H 	0.917240	0.737340	-0.043460	0.056000
cgH 	H 	0.853970	0.649430	0.042410	0.052000
cgH 	H 	0.951290	0.705720	0.087250	0.021000
cgC 	C 	0.519760	0.714370	0.137640	-0.030000
cgH 	H 	0.532980	0.712220	0.157200	0.044000
cgH 	H 	0.509750	0.702410	0.073900	0.038000
cgH 	H 	0.511190	0.712490	0.220030	0.039000
cgC 	C 	0.578230	0.894750	0.374510	0.115000
cgC 	C 	0.565140	0.903070	0.371310	-0.082000
cgC 	C 	0.572920	0.924300	0.369840	-0.018000
cgC 	C 	0.558050	0.931730	0.367340	0.039000
cgN 	N 	0.563870	0.950790	0.345550	-0.113000
cgC 	C 	0.550950	0.959750	0.342020	0.086000
cgC 	C 	0.531390	0.950390	0.393880	-0.073000
cgC 	C 	0.519740	0.960110	0.391680	-0.017000
cgC 	C 	0.527190	0.979290	0.336440	-0.015000
cgC 	C 	0.546780	0.988480	0.284490	-0.018000
cgC 	C 	0.558570	0.978920	0.288920	-0.069000
cgC 	C 	0.514730	0.989710	0.334450	0.039000
cgC 	C 	0.993210	0.978210	0.334240	-0.078000
cgO 	O 	0.570710	0.873460	0.382750	-0.185000
cgH 	H 	0.548700	0.893060	0.369690	0.053000
cgH 	H 	0.525290	0.936000	0.440280	0.049000
cgH 	H 	0.505190	0.952820	0.437180	0.033000
cgH 	H 	0.552960	0.502880	0.237930	0.035000
cgH 	H 	0.573600	0.986330	0.248650	0.058000
cgH 	H 	0.985690	0.961690	0.334530	0.050000
cgH 	H 	0.541990	0.920670	0.379360	0.021000
cgC 	C 	0.550640	0.860850	0.429750	-0.030000
cgH 	H 	0.548490	0.845470	0.449310	0.044000
cgH 	H 	0.538680	0.858890	0.366010	0.037000
cgH 	H 	0.548750	0.867530	0.512140	0.039000
cgC 	C 	0.607760	0.679690	0.374510	0.116000
cgC 	C 	0.599440	0.658280	0.371310	-0.082000
cgC 	C 	0.578210	0.644830	0.369840	-0.018000
cgC 	C 	0.570770	0.622520	0.367340	0.039000
cgN 	N 	0.551720	0.609290	0.345550	-0.113000
cgC 	C 	0.542760	0.587410	0.342020	0.086000
cgC 	C 	0.552110	0.577210	0.393880	-0.073000
cgC 	C 	0.542390	0.555840	0.391680	-0.018000
cgC 	C 	0.523220	0.544110	0.336440	-0.015000
cgC 	C 	0.514020	0.554510	0.284490	-0.018000
cgC 	C 	0.523580	0.575850	0.288920	-0.069000
cgC 	C 	0.512800	0.521230	0.334450	0.039000
cgC 	C 	0.524300	0.511210	0.334240	-0.078000
cgO 	O 	0.629040	0.693460	0.382750	-0.185000
cgH 	H 	0.609450	0.651850	0.369690	0.053000
cgH 	H 	0.566500	0.585500	0.440280	0.050000
cgH 	H 	0.549680	0.548580	0.437180	0.033000
cgH 	H 	0.999620	0.546290	0.237930	0.034000
cgH 	H 	0.516180	0.583480	0.248650	0.058000
cgH 	H 	0.540810	0.520210	0.334530	0.051000
cgH 	H 	0.581840	0.617530	0.379360	0.021000
cgC 	C 	0.641660	0.686000	0.429750	-0.030000
cgH 	H 	0.657030	0.699220	0.449310	0.044000
cgH 	H 	0.643610	0.675990	0.366010	0.037000
cgH 	H 	0.634980	0.677430	0.512140	0.039000
cgC 	C 	0.822810	0.924270	0.374510	0.116000
cgC 	C 	0.844230	0.937370	0.371310	-0.082000
cgC 	C 	0.857680	0.929590	0.369840	-0.017000
cgC 	C 	0.879980	0.944460	0.367340	0.039000
cgN 	N 	0.893220	0.938640	0.345550	-0.113000
cgC 	C 	0.915100	0.951560	0.342020	0.086000
cgC 	C 	0.925300	0.971110	0.393880	-0.073000
cgC 	C 	0.946670	0.982760	0.391680	-0.018000
cgC 	C 	0.958390	0.975310	0.336440	-0.014000
cgC 	C 	0.948000	0.955720	0.284490	-0.018000
cgC 	C 	0.926650	0.943940	0.288920	-0.069000
cgC 	C 	0.981270	0.987770	0.334450	0.039000
cgC 	C 	0.991300	0.509300	0.334240	-0.078000
cgO 	O 	0.809050	0.931790	0.382750	-0.185000
cgH 	H 	0.850650	0.953800	0.369690	0.053000
cgH 	H 	0.917010	0.977210	0.440280	0.049000
cgH 	H 	0.953930	0.997310	0.437180	0.034000
cgH 	H 	0.956220	0.949540	0.237930	0.035000
cgH 	H 	0.919020	0.928900	0.248650	0.058000
cgH 	H 	0.982300	0.516810	0.334530	0.051000
cgH 	H 	0.884980	0.960520	0.379360	0.022000
cgC 	C 	0.816510	0.951870	0.429750	-0.030000
cgH 	H 	0.803280	0.954020	0.449310	0.044000
cgH 	H 	0.826510	0.963830	0.366010	0.038000
cgH 	H 	0.825070	0.953750	0.512140	0.040000
cgC 	C 	0.594300	0.937730	0.374510	0.115000
cgC 	C 	0.607400	0.929410	0.371310	-0.082000
cgC 	C 	0.599620	0.908180	0.369840	-0.018000
cgC 	C 	0.614490	0.900740	0.367340	0.039000
cgN 	N 	0.608670	0.881690	0.345550	-0.113000
cgC 	C 	0.621590	0.872730	0.342020	0.086000
cgC 	C 	0.641140	0.882080	0.393880	-0.073000
cgC 	C 	0.652790	0.872360	0.391680	-0.016000
cgC 	C 	0.645340	0.853190	0.336440	-0.015000
cgC 	C 	0.625750	0.843990	0.284490	-0.019000
cgC 	C 	0.613970	0.853550	0.288920	-0.071000
cgC 	C 	0.657800	0.842770	0.334450	0.041000
cgC 	C 	0.679330	0.854270	0.334240	-0.078000
cgO 	O 	0.601820	0.959010	0.382750	-0.184000
cgH 	H 	0.623830	0.939420	0.369690	0.052000
cgH 	H 	0.647240	0.896470	0.440280	0.050000
cgH 	H 	0.667340	0.879650	0.437180	0.034000
cgH 	H 	0.619570	0.829590	0.237930	0.029000
cgH 	H 	0.598930	0.846150	0.248650	0.055000
cgH 	H 	0.686840	0.870780	0.334530	0.052000
cgH 	H 	0.630550	0.911810	0.379360	0.021000
cgC 	C 	0.621900	0.971630	0.429750	-0.030000
cgH 	H 	0.624050	0.987000	0.449310	0.045000
cgH 	H 	0.633860	0.973580	0.366010	0.037000
cgH 	H 	0.623780	0.964950	0.512140	0.039000
cgC 	C 	0.564780	0.652780	0.374510	0.115000
cgC 	C 	0.573100	0.674200	0.371310	-0.082000
cgC 	C 	0.594330	0.687650	0.369840	-0.018000
cgC 	C 	0.601760	0.709950	0.367340	0.039000
cgN 	N 	0.620820	0.723190	0.345550	-0.113000
cgC 	C 	0.629780	0.745070	0.342020	0.086000
cgC 	C 	0.620420	0.755270	0.393880	-0.073000
cgC 	C 	0.630140	0.776640	0.391680	-0.017000
cgC 	C 	0.649320	0.788360	0.336440	-0.015000
cgC 	C 	0.658510	0.777970	0.284490	-0.021000
cgC 	C 	0.648950	0.756620	0.288920	-0.069000
cgC 	C 	0.659740	0.811240	0.334450	0.040000
cgC 	C 	0.648240	0.821270	0.334240	-0.077000
cgO 	O 	0.543490	0.639020	0.382750	-0.184000
cgH 	H 	0.563090	0.680620	0.369690	0.052000
cgH 	H 	0.606030	0.746980	0.440280	0.050000
cgH 	H 	0.622850	0.783900	0.437180	0.034000
cgH 	H 	0.672910	0.786190	0.237930	0.030000
cgH 	H 	0.656360	0.748990	0.248650	0.055000
cgH 	H 	0.631720	0.812270	0.334530	0.052000
cgH 	H 	0.590700	0.714950	0.379360	0.021000
cgC 	C 	0.530880	0.646480	0.429750	-0.029000
cgH 	H 	0.515500	0.633250	0.449310	0.044000
cgH 	H 	0.528920	0.656480	0.366010	0.037000
cgH 	H 	0.537560	0.655040	0.512140	0.039000
cgC 	C 	0.849720	0.908200	0.374510	0.115000
cgC 	C 	0.828310	0.895110	0.371310	-0.081000
cgC 	C 	0.814860	0.902890	0.369840	-0.018000
cgC 	C 	0.792550	0.888020	0.367340	0.039000
cgN 	N 	0.779320	0.893840	0.345550	-0.113000
cgC 	C 	0.757440	0.880920	0.342020	0.087000
cgC 	C 	0.747240	0.861360	0.393880	-0.073000
cgC 	C 	0.725870	0.849710	0.391680	-0.016000
cgC 	C 	0.714140	0.857160	0.336440	-0.017000
cgC 	C 	0.724540	0.876750	0.284490	-0.016000
cgC 	C 	0.745880	0.888540	0.288920	-0.071000
cgC 	C 	0.691260	0.844700	0.334450	0.041000
cgC 	C 	0.681240	0.823180	0.334240	-0.078000
cgO 	O 	0.863490	0.900680	0.382750	-0.184000
cgH 	H 	0.821880	0.878670	0.369690	0.052000
cgH 	H 	0.755530	0.855260	0.440280	0.050000
cgH 	H 	0.718610	0.835160	0.437180	0.034000
cgH 	H 	0.716320	0.882930	0.237930	0.026000
cgH 	H 	0.753510	0.903570	0.248650	0.056000
cgH 	H 	0.690240	0.815660	0.334530	0.052000
cgH 	H 	0.787560	0.871960	0.379360	0.021000
cgC 	C 	0.856030	0.880610	0.429750	-0.030000
cgH 	H 	0.869250	0.878460	0.449310	0.045000
cgH 	H 	0.846020	0.868650	0.366010	0.037000
cgH 	H 	0.847460	0.878720	0.512140	0.039000
cgC 	C 	0.903160	0.553570	0.800810	0.115000
cgC 	C 	0.890070	0.561890	0.797620	-0.082000
cgC 	C 	0.897850	0.583120	0.796150	-0.018000
cgC 	C 	0.882980	0.590550	0.793640	0.039000
cgN 	N 	0.888800	0.609610	0.771850	-0.113000
cgC 	C 	0.875880	0.618570	0.768320	0.085000
cgC 	C 	0.856320	0.609210	0.820190	-0.071000
cgC 	C 	0.844670	0.618930	0.817980	-0.026000
cgC 	C 	0.852120	0.638110	0.762740	-0.014000
cgC 	C 	0.871710	0.647300	0.710790	-0.019000
cgC 	C 	0.883500	0.637740	0.715220	-0.069000
cgC 	C 	0.839660	0.648530	0.760750	0.039000
cgC 	C 	0.818140	0.637030	0.760540	-0.078000
cgO 	O 	0.895640	0.532280	0.809050	-0.185000
cgH 	H 	0.873630	0.551880	0.795990	0.053000
cgH 	H 	0.850220	0.594820	0.866590	0.048000
cgH 	H 	0.830120	0.611640	0.863490	0.031000
cgH 	H 	0.877890	0.661700	0.664230	0.035000
cgH 	H 	0.898530	0.645150	0.674960	0.058000
cgH 	H 	0.810620	0.620510	0.760830	0.052000
cgH 	H 	0.866920	0.579490	0.805670	0.022000
cgC 	C 	0.875570	0.519670	0.856060	-0.029000
cgH 	H 	0.873420	0.504290	0.875620	0.044000
cgH 	H 	0.863610	0.517710	0.792320	0.038000
cgH 	H 	0.873680	0.526350	0.938450	0.039000
cgC 	C 	0.932690	0.838510	0.800810	0.116000
cgC 	C 	0.924370	0.817100	0.797620	-0.082000
cgC 	C 	0.903140	0.803650	0.796150	-0.018000
cgC 	C 	0.895700	0.781340	0.793640	0.039000
cgN 	N 	0.876650	0.768110	0.771850	-0.113000
cgC 	C 	0.867690	0.746230	0.768320	0.086000
cgC 	C 	0.877040	0.736030	0.820190	-0.075000
cgC 	C 	0.867320	0.714660	0.817980	-0.021000
cgC 	C 	0.848150	0.702930	0.762740	-0.014000
cgC 	C 	0.838950	0.713330	0.710790	-0.018000
cgC 	C 	0.848510	0.734670	0.715220	-0.069000
cgC 	C 	0.837730	0.680050	0.760750	0.041000
cgC 	C 	0.849230	0.670030	0.760540	-0.077000
cgO 	O 	0.953970	0.852280	0.809050	-0.185000
cgH 	H 	0.934380	0.810670	0.795990	0.053000
cgH 	H 	0.891430	0.744320	0.866590	0.047000
cgH 	H 	0.874610	0.707400	0.863490	0.029000
cgH 	H 	0.824550	0.705110	0.664230	0.035000
cgH 	H 	0.841110	0.742300	0.674960	0.058000
cgH 	H 	0.865740	0.679030	0.760830	0.051000
cgH 	H 	0.906770	0.776350	0.805670	0.021000
cgC 	C 	0.966590	0.844820	0.856060	-0.030000
cgH 	H 	0.981960	0.858040	0.875620	0.044000
cgH 	H 	0.968540	0.834810	0.792320	0.038000
cgH 	H 	0.959910	0.836250	0.938450	0.039000
cgC 	C 	0.647740	0.583090	0.800810	0.115000
cgC 	C 	0.669160	0.596190	0.797620	-0.082000
cgC 	C 	0.682610	0.588410	0.796150	-0.018000
cgC 	C 	0.704910	0.603280	0.793640	0.039000
cgN 	N 	0.718150	0.597460	0.771850	-0.113000
cgC 	C 	0.740030	0.610380	0.768320	0.087000
cgC 	C 	0.750230	0.629930	0.820190	-0.076000
cgC 	C 	0.771600	0.641580	0.817980	-0.013000
cgC 	C 	0.783320	0.634130	0.762740	-0.018000
cgC 	C 	0.772930	0.614540	0.710790	-0.016000
cgC 	C 	0.751580	0.602760	0.715220	-0.071000
cgC 	C 	0.806200	0.646590	0.760750	0.040000
cgC 	C 	0.816230	0.668120	0.760540	-0.078000
cgO 	O 	0.633980	0.590610	0.809050	-0.185000
cgH 	H 	0.675580	0.612620	0.795990	0.053000
cgH 	H 	0.741940	0.636030	0.866590	0.049000
cgH 	H 	0.778860	0.656130	0.863490	0.023000
cgH 	H 	0.781150	0.608360	0.664230	0.034000
cgH 	H 	0.743950	0.587720	0.674960	0.058000
cgH 	H 	0.807230	0.675630	0.760830	0.051000
cgH 	H 	0.709910	0.619340	0.805670	0.021000
cgC 	C 	0.641440	0.610690	0.856060	-0.030000
cgH 	H 	0.628210	0.612840	0.875620	0.044000
cgH 	H 	0.651440	0.622650	0.792320	0.038000
cgH 	H 	0.650000	0.612570	0.938450	0.039000
cgC 	C 	0.919230	0.596550	0.800810	0.115000
cgC 	C 	0.932330	0.588230	0.797620	-0.082000
cgC 	C 	0.924550	0.567000	0.796150	-0.018000
cgC 	C 	0.939420	0.559560	0.793640	0.039000
cgN 	N 	0.933600	0.540510	0.771850	-0.113000
cgC 	C 	0.946520	0.531550	0.768320	0.086000
cgC 	C 	0.966070	0.540900	0.820190	-0.073000
cgC 	C 	0.977720	0.531180	0.817980	-0.018000
cgC 	C 	0.970270	0.512010	0.762740	-0.015000
cgC 	C 	0.950680	0.502810	0.710790	-0.019000
cgC 	C 	0.938900	0.512370	0.715220	-0.070000
cgC 	C 	0.982730	0.501590	0.760750	0.039000
cgC 	C 	0.504260	0.513090	0.760540	-0.078000
cgO 	O 	0.926750	0.617830	0.809050	-0.185000
cgH 	H 	0.948760	0.598240	0.795990	0.052000
cgH 	H 	0.972170	0.555290	0.866590	0.049000
cgH 	H 	0.992270	0.538470	0.863490	0.033000
cgH 	H 	0.944500	0.988410	0.664230	0.034000
cgH 	H 	0.923860	0.504970	0.674960	0.056000
cgH 	H 	0.511770	0.529600	0.760830	0.050000
cgH 	H 	0.955480	0.570630	0.805670	0.021000
cgC 	C 	0.946830	0.630450	0.856060	-0.029000
cgH 	H 	0.948980	0.645820	0.875620	0.043000
cgH 	H 	0.958790	0.632400	0.792320	0.038000
cgH 	H 	0.948710	0.623770	0.938450	0.038000
cgC 	C 	0.889710	0.811600	0.800810	0.115000
cgC 	C 	0.898030	0.833020	0.797620	-0.082000
cgC 	C 	0.919260	0.846470	0.796150	-0.018000
cgC 	C 	0.926690	0.868770	0.793640	0.039000
cgN 	N 	0.945750	0.882010	0.771850	-0.113000
cgC 	C 	0.954710	0.903890	0.768320	0.086000
cgC 	C 	0.945350	0.914090	0.820190	-0.073000
cgC 	C 	0.955070	0.935460	0.817980	-0.017000
cgC 	C 	0.974250	0.947180	0.762740	-0.015000
cgC 	C 	0.983440	0.936790	0.710790	-0.018000
cgC 	C 	0.973880	0.915440	0.715220	-0.070000
cgC 	C 	0.984670	0.970060	0.760750	0.039000
cgC 	C 	0.973170	0.980090	0.760540	-0.078000
cgO 	O 	0.868420	0.797840	0.809050	-0.185000
cgH 	H 	0.888020	0.839440	0.795990	0.052000
cgH 	H 	0.930960	0.905800	0.866590	0.050000
cgH 	H 	0.947780	0.942720	0.863490	0.033000
cgH 	H 	0.997840	0.945010	0.664230	0.032000
cgH 	H 	0.981290	0.907810	0.674960	0.056000
cgH 	H 	0.956650	0.971090	0.760830	0.050000
cgH 	H 	0.915630	0.873770	0.805670	0.021000
cgC 	C 	0.855810	0.805300	0.856060	-0.029000
cgH 	H 	0.840430	0.792070	0.875620	0.043000
cgH 	H 	0.853850	0.815300	0.792320	0.037000
cgH 	H 	0.862490	0.813860	0.938450	0.038000
cgC 	C 	0.674650	0.567020	0.800810	0.115000
cgC 	C 	0.653240	0.553930	0.797620	-0.082000
cgC 	C 	0.639790	0.561710	0.796150	-0.018000
cgC 	C 	0.617480	0.546840	0.793640	0.039000
cgN 	N 	0.604250	0.552660	0.771850	-0.113000
cgC 	C 	0.582370	0.539740	0.768320	0.086000
cgC 	C 	0.572170	0.520180	0.820190	-0.073000
cgC 	C 	0.550800	0.508530	0.817980	-0.017000
cgC 	C 	0.539070	0.515980	0.762740	-0.014000
cgC 	C 	0.549470	0.535570	0.710790	-0.019000
cgC 	C 	0.570810	0.547360	0.715220	-0.070000
cgC 	C 	0.516190	0.503520	0.760750	0.039000
cgC 	C 	0.506170	0.982000	0.760540	-0.078000
cgO 	O 	0.688420	0.559500	0.809050	-0.185000
cgH 	H 	0.646810	0.537490	0.795990	0.052000
cgH 	H 	0.580460	0.514080	0.866590	0.050000
cgH 	H 	0.543540	0.993980	0.863490	0.034000
cgH 	H 	0.541250	0.541750	0.664230	0.034000
cgH 	H 	0.578440	0.562390	0.674960	0.056000
cgH 	H 	0.515170	0.974480	0.760830	0.050000
cgH 	H 	0.612490	0.530780	0.805670	0.021000
cgC 	C 	0.680960	0.539430	0.856060	-0.029000
cgH 	H 	0.694180	0.537280	0.875620	0.043000
cgH 	H 	0.670950	0.527470	0.792320	0.038000
cgH 	H 	0.672390	0.537540	0.938450	0.038000
_end
